warn: system.ruby.network adopting orphan SimObject param 'int_links'
warn: system.ruby.network adopting orphan SimObject param 'ext_links'
gem5 Simulator System.  http://gem5.org
gem5 is copyrighted software; use the --copyright option for details.

gem5 compiled Apr  8 2020 12:53:59
gem5 started Apr  8 2020 14:17:54
gem5 executing on impa, pid 23131
command line: build/GCN3_X86/gem5.opt --debug-flags=HSAPacketProcessor,HSADriver,GPUDriver configs/example/apu_se.py -n2 --benchmark-root=/u/b/w/bwyogatama/Research/Scheduling/gem5/histogram -c histogram.out

Num SQC =  1 Num scalar caches =  1 Num CU =  4
Global frequency set at 1000000000000 ticks per second
warn: DRAM device capacity (8192 Mbytes) does not match the address range assigned (512 Mbytes)
      0: system.cpu0.workload.drivers.device.hsapp: HSAPacketProcessor:
      0: system.cpu0.workload.drivers: Constructing KFD: device
Forcing maxCoalescedReqs to 32 (TLB assoc.) 
Forcing maxCoalescedReqs to 32 (TLB assoc.) 
Forcing maxCoalescedReqs to 32 (TLB assoc.) 
Forcing maxCoalescedReqs to 32 (TLB assoc.) 
Forcing maxCoalescedReqs to 32 (TLB assoc.) 
Forcing maxCoalescedReqs to 32 (TLB assoc.) 
Forcing maxCoalescedReqs to 32 (TLB assoc.) 
Forcing maxCoalescedReqs to 32 (TLB assoc.) 
0: system.remote_gdb: listening for remote gdb on port 7002
0: system.remote_gdb: listening for remote gdb on port 7003
info: Entering event queue @ 0.  Starting simulation...
warn: Replacement policy updates recently became the responsibility of SLICC state machines. Make sure to setMRU() near callbacks in .sm files!
warn: x86 cpuid family 0x0000: unimplemented function 7
warn: ignoring syscall access(...)
warn: ignoring syscall access(...)
warn: ignoring syscall mprotect(...)
warn: ignoring syscall access(...)
warn: ignoring syscall mprotect(...)
warn: ignoring syscall access(...)
warn: ignoring syscall mprotect(...)
warn: ignoring syscall access(...)
warn: ignoring syscall mprotect(...)
warn: ignoring syscall mprotect(...)
warn: ignoring syscall mprotect(...)
warn: ignoring syscall mprotect(...)
warn: ignoring syscall mprotect(...)
warn: ignoring syscall mprotect(...)
warn: ignoring syscall access(...)
warn: ignoring syscall mprotect(...)
warn: ignoring syscall access(...)
warn: ignoring syscall mprotect(...)
warn: ignoring syscall access(...)
warn: ignoring syscall mprotect(...)
warn: ignoring syscall mprotect(...)
warn: ignoring syscall access(...)
warn: ignoring syscall mprotect(...)
warn: ignoring syscall access(...)
warn: ignoring syscall mprotect(...)
warn: ignoring syscall access(...)
warn: ignoring syscall mprotect(...)
warn: ignoring syscall access(...)
warn: ignoring syscall mprotect(...)
warn: ignoring syscall access(...)
warn: ignoring syscall mprotect(...)
warn: ignoring syscall mprotect(...)
warn: ignoring syscall mprotect(...)
warn: ignoring syscall mprotect(...)
warn: ignoring syscall mprotect(...)
warn: ignoring syscall mprotect(...)
warn: ignoring syscall mprotect(...)
warn: ignoring syscall mprotect(...)
warn: ignoring syscall mprotect(...)
warn: ignoring syscall mprotect(...)
warn: ignoring syscall mprotect(...)
warn: ignoring syscall mprotect(...)
warn: ignoring syscall mprotect(...)
warn: ignoring syscall mprotect(...)
warn: ignoring syscall mprotect(...)
warn: ignoring syscall mprotect(...)
warn: ignoring syscall mprotect(...)
warn: ignoring syscall mprotect(...)
warn: ignoring syscall mprotect(...)
warn: ignoring syscall set_robust_list(...)
warn: ignoring syscall rt_sigaction(...)
      (further warnings will be suppressed)
warn: ignoring syscall rt_sigprocmask(...)
      (further warnings will be suppressed)
warn: ignoring syscall mprotect(...)
warn: ignoring syscall mprotect(...)
17250521000: system.cpu0.workload.drivers: Opened kfd
warn: ignoring syscall access(...)
17468035000: system.cpu0.workload.drivers: ioctl: AMDKFD_IOC_GET_PROCESS_APERTURES_NEW
warn: fcntl: unsupported command 6
warn: fcntl: unsupported command 6
17487276500: system.cpu0.workload.drivers: ioctl: AMDKFD_IOC_GET_VERSION
Failed to get Processor Vendor. Setting to GenuineIntel
warn: ignoring syscall sched_getaffinity(...)
warn: ignoring syscall sched_setaffinity(...)
warn: x86 cpuid family 0x0000: unimplemented function 4 returning 0x0, 0x0, 0x0, 0x0.
warn: ignoring syscall sched_setaffinity(...)
warn: x86 cpuid family 0x0000: unimplemented function 4 returning 0x0, 0x0, 0x0, 0x0.
warn: ignoring syscall sched_setaffinity(...)
warn: ignoring syscall access(...)
17650017500: system.cpu0.workload.drivers: ioctl: AMDKFD_IOC_GET_CLOCK_COUNTERS
17654739000: system.cpu0.workload.drivers: ioctl: AMDKFD_IOC_GET_CLOCK_COUNTERS
warn: ignoring syscall mprotect(...)
warn: ignoring syscall mprotect(...)
warn: ignoring syscall mprotect(...)
warn: ignoring syscall mprotect(...)
warn: unimplemented ioctl: AMDKFD_IOC_ALLOC_MEMORY_OF_SCRATCH
warn: mmap: writing to shared mmap region is currently unsupported. The write succeeds on the target, but it will not be propagated to the host or shared mappings
warn: mmap: writing to shared mmap region is currently unsupported. The write succeeds on the target, but it will not be propagated to the host or shared mappings
warn: ignoring syscall mprotect(...)
warn: ignoring syscall mprotect(...)
warn: ignoring syscall mprotect(...)
34519622500: system.cpu0.workload.drivers: ioctl: AMDKFD_IOC_CREATE_QUEUE
34519622500: system.cpu0.workload.drivers.device.hsapp: setDeviceQueueDesc:base = 0x7ffef42dc000, qID = 0, ze = 524288
34519622500: global: Trying to map new queue, @ mapQIfSlotAvlbl
34519622500: global: Trying to find empty HW queue, @ findEmptyHWQ
34519622500: global: Mapped HSA queue 0 to hw queue 0: @ addQCntxt
34519622500: system.cpu0.workload.drivers.device.hsapp: getCommandsFromHost: read-pointer offset[0x0], write-pointer offset[0x0] doorbell(0)[0x0] 
34519622500: global: registerNewQueue: offset = 0, qID = 0, is_regd = true, AL size 1
34519622500: system.cpu0.workload.drivers: Creating queue 1
warn: mmap: writing to shared mmap region is currently unsupported. The write succeeds on the target, but it will not be propagated to the host or shared mappings
34524810000: system.cpu0.workload.drivers: amdkfd doorbell mmap (start: 0, length: 0x1000,offset: 0x0)
34524810000: system.cpu0.workload.drivers: amdkfd doorbell mapped to 7ffef4037000p
34555875500: system.cpu0.workload.drivers: ioctl: AMDKFD_IOC_CREATE_EVENT
34555875500: system.cpu0.workload.drivers: amdkfd create events(event_id: 0x0, offset: 0x8000000000000000)
warn: mmap: writing to shared mmap region is currently unsupported. The write succeeds on the target, but it will not be propagated to the host or shared mappings
34556267000: system.cpu0.workload.drivers: amdkfd mmap for events(start: 0, length: 0x9000,offset: 0x8000000000000000,  )
34585392500: system.cpu0.workload.drivers: ioctl: AMDKFD_IOC_CREATE_EVENT
34585392500: system.cpu0.workload.drivers: amdkfd create events(event_id: 0x1, offset: 0x8000000000000000)
warn: ignoring syscall mprotect(...)
warn: ClockedObject: Already in the requested power state, request ignored
warn: ignoring syscall set_robust_list(...)
warn: ignoring syscall mprotect(...)
34656113500: system.cpu0.workload.drivers: ioctl: AMDKFD_IOC_CREATE_EVENT
34656113500: system.cpu0.workload.drivers: amdkfd create events(event_id: 0x2, offset: 0x8000000000000000)
warn: ignoring syscall mprotect(...)
warn: ignoring syscall mprotect(...)
warn: ignoring syscall mprotect(...)
warn: ignoring syscall mprotect(...)
34873087000: system.cpu0.workload.drivers: ioctl: AMDKFD_IOC_WAIT_EVENTS
34873087000: system.cpu0.workload.drivers: amdkfd wait for events(wait on all: 0, timeout : 4294967294, num_events: 2)
34873087000: system.cpu0.workload.drivers: 	amdkfd creating event list for thread  1
34873087000: system.cpu0.workload.drivers: 	amdkfd wait for event 0
34873087000: system.cpu0.workload.drivers: 	amdkfd wait for event 1
34873087000: system.cpu0.workload.drivers: CPU 1 is put to sleep
warn: mmap: writing to shared mmap region is currently unsupported. The write succeeds on the target, but it will not be propagated to the host or shared mappings
warn: mmap: writing to shared mmap region is currently unsupported. The write succeeds on the target, but it will not be propagated to the host or shared mappings
warn: ignoring syscall mprotect(...)
warn: ignoring syscall mprotect(...)
warn: ignoring syscall mprotect(...)
41508008000: system.cpu0.workload.drivers: ioctl: AMDKFD_IOC_CREATE_QUEUE
41508008000: system.cpu0.workload.drivers.device.hsapp: setDeviceQueueDesc:base = 0x7ffeeb74b000, qID = 1, ze = 524288
41508008000: global: Trying to map new queue, @ mapQIfSlotAvlbl
41508008000: global: Trying to find empty HW queue, @ findEmptyHWQ
41508008000: global: Mapped HSA queue 1 to hw queue 1: @ addQCntxt
41508008000: system.cpu0.workload.drivers.device.hsapp: getCommandsFromHost: read-pointer offset[0x0], write-pointer offset[0x0] doorbell(0)[0x4] 
41508008000: global: registerNewQueue: offset = 0x4, qID = 1, is_regd = true, AL size 2
41508008000: system.cpu0.workload.drivers: Creating queue 2
41563917500: system.cpu0.workload.drivers: ioctl: AMDKFD_IOC_SET_EVENTS
41563917500: system.cpu0.workload.drivers: amdkfd set event 1
41563917500: system.cpu0.workload.drivers: Signal event: Waking up CPU 1
warn: ignoring syscall mprotect(...)
41579516000: system.cpu0.workload.drivers: ioctl: AMDKFD_IOC_CREATE_EVENT
41579516000: system.cpu0.workload.drivers: amdkfd create events(event_id: 0x3, offset: 0x8000000000000000)
warn: ignoring syscall mprotect(...)
warn: ignoring syscall mprotect(...)
warn: ignoring syscall mprotect(...)
41666559000: system.cpu0.workload.drivers: ioctl: AMDKFD_IOC_CREATE_EVENT
41666559000: system.cpu0.workload.drivers: amdkfd create events(event_id: 0x4, offset: 0x8000000000000000)
warn: ignoring syscall mprotect(...)
warn: ignoring syscall mprotect(...)
warn: ignoring syscall mprotect(...)
41780259500: system.cpu0.workload.drivers: ioctl: AMDKFD_IOC_WAIT_EVENTS
41780259500: system.cpu0.workload.drivers: amdkfd wait for events(wait on all: 0, timeout : 4294967294, num_events: 2)
41780259500: system.cpu0.workload.drivers: 	amdkfd wait for event 0
41780259500: system.cpu0.workload.drivers: 	amdkfd wait for event 1
41780861000: system.cpu0.workload.drivers: ioctl: AMDKFD_IOC_WAIT_EVENTS
41780861000: system.cpu0.workload.drivers: amdkfd wait for events(wait on all: 0, timeout : 4294967294, num_events: 2)
41780861000: system.cpu0.workload.drivers: 	amdkfd wait for event 0
41780861000: system.cpu0.workload.drivers: 	amdkfd wait for event 1
41780861000: system.cpu0.workload.drivers: CPU 1 is put to sleep
45957224000: system.cpu0.workload.drivers: ioctl: AMDKFD_IOC_CREATE_EVENT
45957224000: system.cpu0.workload.drivers: amdkfd create events(event_id: 0x5, offset: 0x8000000000000000)
45961022500: system.cpu0.workload.drivers: ioctl: AMDKFD_IOC_CREATE_EVENT
45961022500: system.cpu0.workload.drivers: amdkfd create events(event_id: 0x6, offset: 0x8000000000000000)
45973807500: system.cpu0.workload.drivers: ioctl: AMDKFD_IOC_CREATE_EVENT
45973807500: system.cpu0.workload.drivers: amdkfd create events(event_id: 0x7, offset: 0x8000000000000000)
45978175500: system.cpu0.workload.drivers: ioctl: AMDKFD_IOC_CREATE_EVENT
45978175500: system.cpu0.workload.drivers: amdkfd create events(event_id: 0x8, offset: 0x8000000000000000)
45993460500: system.cpu0.workload.drivers: ioctl: AMDKFD_IOC_CREATE_EVENT
45993460500: system.cpu0.workload.drivers: amdkfd create events(event_id: 0x9, offset: 0x8000000000000000)
45997863500: system.cpu0.workload.drivers: ioctl: AMDKFD_IOC_CREATE_EVENT
45997863500: system.cpu0.workload.drivers: amdkfd create events(event_id: 0xa, offset: 0x8000000000000000)
46010025500: system.cpu0.workload.drivers: ioctl: AMDKFD_IOC_CREATE_EVENT
46010025500: system.cpu0.workload.drivers: amdkfd create events(event_id: 0xb, offset: 0x8000000000000000)
46014349000: system.cpu0.workload.drivers: ioctl: AMDKFD_IOC_CREATE_EVENT
46014349000: system.cpu0.workload.drivers: amdkfd create events(event_id: 0xc, offset: 0x8000000000000000)
46031607500: system.cpu0.workload.drivers: ioctl: AMDKFD_IOC_CREATE_EVENT
46031607500: system.cpu0.workload.drivers: amdkfd create events(event_id: 0xd, offset: 0x8000000000000000)
46037093500: system.cpu0.workload.drivers: ioctl: AMDKFD_IOC_CREATE_EVENT
46037093500: system.cpu0.workload.drivers: amdkfd create events(event_id: 0xe, offset: 0x8000000000000000)
46041801500: system.cpu0.workload.drivers: ioctl: AMDKFD_IOC_CREATE_EVENT
46041801500: system.cpu0.workload.drivers: amdkfd create events(event_id: 0xf, offset: 0x8000000000000000)
46046704500: system.cpu0.workload.drivers: ioctl: AMDKFD_IOC_CREATE_EVENT
46046704500: system.cpu0.workload.drivers: amdkfd create events(event_id: 0x10, offset: 0x8000000000000000)
46050824000: system.cpu0.workload.drivers: ioctl: AMDKFD_IOC_CREATE_EVENT
46050824000: system.cpu0.workload.drivers: amdkfd create events(event_id: 0x11, offset: 0x8000000000000000)
46056352500: system.cpu0.workload.drivers: ioctl: AMDKFD_IOC_CREATE_EVENT
46056352500: system.cpu0.workload.drivers: amdkfd create events(event_id: 0x12, offset: 0x8000000000000000)
46060578000: system.cpu0.workload.drivers: ioctl: AMDKFD_IOC_CREATE_EVENT
46060578000: system.cpu0.workload.drivers: amdkfd create events(event_id: 0x13, offset: 0x8000000000000000)
46064814500: system.cpu0.workload.drivers: ioctl: AMDKFD_IOC_CREATE_EVENT
46064814500: system.cpu0.workload.drivers: amdkfd create events(event_id: 0x14, offset: 0x8000000000000000)
46069006000: system.cpu0.workload.drivers: ioctl: AMDKFD_IOC_CREATE_EVENT
46069006000: system.cpu0.workload.drivers: amdkfd create events(event_id: 0x15, offset: 0x8000000000000000)
46074854500: system.cpu0.workload.drivers: ioctl: AMDKFD_IOC_CREATE_EVENT
46074854500: system.cpu0.workload.drivers: amdkfd create events(event_id: 0x16, offset: 0x8000000000000000)
46079066000: system.cpu0.workload.drivers: ioctl: AMDKFD_IOC_CREATE_EVENT
46079066000: system.cpu0.workload.drivers: amdkfd create events(event_id: 0x17, offset: 0x8000000000000000)
46083360000: system.cpu0.workload.drivers: ioctl: AMDKFD_IOC_CREATE_EVENT
46083360000: system.cpu0.workload.drivers: amdkfd create events(event_id: 0x18, offset: 0x8000000000000000)
46087571500: system.cpu0.workload.drivers: ioctl: AMDKFD_IOC_CREATE_EVENT
46087571500: system.cpu0.workload.drivers: amdkfd create events(event_id: 0x19, offset: 0x8000000000000000)
46092069500: system.cpu0.workload.drivers: ioctl: AMDKFD_IOC_CREATE_EVENT
46092069500: system.cpu0.workload.drivers: amdkfd create events(event_id: 0x1a, offset: 0x8000000000000000)
46096695500: system.cpu0.workload.drivers: ioctl: AMDKFD_IOC_CREATE_EVENT
46096695500: system.cpu0.workload.drivers: amdkfd create events(event_id: 0x1b, offset: 0x8000000000000000)
46100967000: system.cpu0.workload.drivers: ioctl: AMDKFD_IOC_CREATE_EVENT
46100967000: system.cpu0.workload.drivers: amdkfd create events(event_id: 0x1c, offset: 0x8000000000000000)
46105189500: system.cpu0.workload.drivers: ioctl: AMDKFD_IOC_CREATE_EVENT
46105189500: system.cpu0.workload.drivers: amdkfd create events(event_id: 0x1d, offset: 0x8000000000000000)
46110720000: system.cpu0.workload.drivers: ioctl: AMDKFD_IOC_CREATE_EVENT
46110720000: system.cpu0.workload.drivers: amdkfd create events(event_id: 0x1e, offset: 0x8000000000000000)
46115626000: system.cpu0.workload.drivers: ioctl: AMDKFD_IOC_CREATE_EVENT
46115626000: system.cpu0.workload.drivers: amdkfd create events(event_id: 0x1f, offset: 0x8000000000000000)
46120497500: system.cpu0.workload.drivers: ioctl: AMDKFD_IOC_CREATE_EVENT
46120497500: system.cpu0.workload.drivers: amdkfd create events(event_id: 0x20, offset: 0x8000000000000000)
46124886000: system.cpu0.workload.drivers: ioctl: AMDKFD_IOC_CREATE_EVENT
46124886000: system.cpu0.workload.drivers: amdkfd create events(event_id: 0x21, offset: 0x8000000000000000)
46129903000: system.cpu0.workload.drivers: ioctl: AMDKFD_IOC_CREATE_EVENT
46129903000: system.cpu0.workload.drivers: amdkfd create events(event_id: 0x22, offset: 0x8000000000000000)
46134296000: system.cpu0.workload.drivers: ioctl: AMDKFD_IOC_CREATE_EVENT
46134296000: system.cpu0.workload.drivers: amdkfd create events(event_id: 0x23, offset: 0x8000000000000000)
46139042000: system.cpu0.workload.drivers: ioctl: AMDKFD_IOC_CREATE_EVENT
46139042000: system.cpu0.workload.drivers: amdkfd create events(event_id: 0x24, offset: 0x8000000000000000)
46143510000: system.cpu0.workload.drivers: ioctl: AMDKFD_IOC_CREATE_EVENT
46143510000: system.cpu0.workload.drivers: amdkfd create events(event_id: 0x25, offset: 0x8000000000000000)
46149064000: system.cpu0.workload.drivers: ioctl: AMDKFD_IOC_CREATE_EVENT
46149064000: system.cpu0.workload.drivers: amdkfd create events(event_id: 0x26, offset: 0x8000000000000000)
46153373000: system.cpu0.workload.drivers: ioctl: AMDKFD_IOC_CREATE_EVENT
46153373000: system.cpu0.workload.drivers: amdkfd create events(event_id: 0x27, offset: 0x8000000000000000)
46158082000: system.cpu0.workload.drivers: ioctl: AMDKFD_IOC_CREATE_EVENT
46158082000: system.cpu0.workload.drivers: amdkfd create events(event_id: 0x28, offset: 0x8000000000000000)
46162507000: system.cpu0.workload.drivers: ioctl: AMDKFD_IOC_CREATE_EVENT
46162507000: system.cpu0.workload.drivers: amdkfd create events(event_id: 0x29, offset: 0x8000000000000000)
46167647500: system.cpu0.workload.drivers: ioctl: AMDKFD_IOC_CREATE_EVENT
46167647500: system.cpu0.workload.drivers: amdkfd create events(event_id: 0x2a, offset: 0x8000000000000000)
46171980500: system.cpu0.workload.drivers: ioctl: AMDKFD_IOC_CREATE_EVENT
46171980500: system.cpu0.workload.drivers: amdkfd create events(event_id: 0x2b, offset: 0x8000000000000000)
46176694000: system.cpu0.workload.drivers: ioctl: AMDKFD_IOC_CREATE_EVENT
46176694000: system.cpu0.workload.drivers: amdkfd create events(event_id: 0x2c, offset: 0x8000000000000000)
46181433500: system.cpu0.workload.drivers: ioctl: AMDKFD_IOC_CREATE_EVENT
46181433500: system.cpu0.workload.drivers: amdkfd create events(event_id: 0x2d, offset: 0x8000000000000000)
46186885000: system.cpu0.workload.drivers: ioctl: AMDKFD_IOC_CREATE_EVENT
46186885000: system.cpu0.workload.drivers: amdkfd create events(event_id: 0x2e, offset: 0x8000000000000000)
46191286500: system.cpu0.workload.drivers: ioctl: AMDKFD_IOC_CREATE_EVENT
46191286500: system.cpu0.workload.drivers: amdkfd create events(event_id: 0x2f, offset: 0x8000000000000000)
46195980000: system.cpu0.workload.drivers: ioctl: AMDKFD_IOC_CREATE_EVENT
46195980000: system.cpu0.workload.drivers: amdkfd create events(event_id: 0x30, offset: 0x8000000000000000)
46200619500: system.cpu0.workload.drivers: ioctl: AMDKFD_IOC_CREATE_EVENT
46200619500: system.cpu0.workload.drivers: amdkfd create events(event_id: 0x31, offset: 0x8000000000000000)
46205227500: system.cpu0.workload.drivers: ioctl: AMDKFD_IOC_CREATE_EVENT
46205227500: system.cpu0.workload.drivers: amdkfd create events(event_id: 0x32, offset: 0x8000000000000000)
46209615000: system.cpu0.workload.drivers: ioctl: AMDKFD_IOC_CREATE_EVENT
46209615000: system.cpu0.workload.drivers: amdkfd create events(event_id: 0x33, offset: 0x8000000000000000)
46213973000: system.cpu0.workload.drivers: ioctl: AMDKFD_IOC_CREATE_EVENT
46213973000: system.cpu0.workload.drivers: amdkfd create events(event_id: 0x34, offset: 0x8000000000000000)
46218643000: system.cpu0.workload.drivers: ioctl: AMDKFD_IOC_CREATE_EVENT
46218643000: system.cpu0.workload.drivers: amdkfd create events(event_id: 0x35, offset: 0x8000000000000000)
46223931500: system.cpu0.workload.drivers: ioctl: AMDKFD_IOC_CREATE_EVENT
46223931500: system.cpu0.workload.drivers: amdkfd create events(event_id: 0x36, offset: 0x8000000000000000)
46228256500: system.cpu0.workload.drivers: ioctl: AMDKFD_IOC_CREATE_EVENT
46228256500: system.cpu0.workload.drivers: amdkfd create events(event_id: 0x37, offset: 0x8000000000000000)
46233435500: system.cpu0.workload.drivers: ioctl: AMDKFD_IOC_CREATE_EVENT
46233435500: system.cpu0.workload.drivers: amdkfd create events(event_id: 0x38, offset: 0x8000000000000000)
46237828000: system.cpu0.workload.drivers: ioctl: AMDKFD_IOC_CREATE_EVENT
46237828000: system.cpu0.workload.drivers: amdkfd create events(event_id: 0x39, offset: 0x8000000000000000)
46242471000: system.cpu0.workload.drivers: ioctl: AMDKFD_IOC_CREATE_EVENT
46242471000: system.cpu0.workload.drivers: amdkfd create events(event_id: 0x3a, offset: 0x8000000000000000)
46246986000: system.cpu0.workload.drivers: ioctl: AMDKFD_IOC_CREATE_EVENT
46246986000: system.cpu0.workload.drivers: amdkfd create events(event_id: 0x3b, offset: 0x8000000000000000)
46251677000: system.cpu0.workload.drivers: ioctl: AMDKFD_IOC_CREATE_EVENT
46251677000: system.cpu0.workload.drivers: amdkfd create events(event_id: 0x3c, offset: 0x8000000000000000)
46256425000: system.cpu0.workload.drivers: ioctl: AMDKFD_IOC_CREATE_EVENT
46256425000: system.cpu0.workload.drivers: amdkfd create events(event_id: 0x3d, offset: 0x8000000000000000)
46261152500: system.cpu0.workload.drivers: ioctl: AMDKFD_IOC_CREATE_EVENT
46261152500: system.cpu0.workload.drivers: amdkfd create events(event_id: 0x3e, offset: 0x8000000000000000)
46265446500: system.cpu0.workload.drivers: ioctl: AMDKFD_IOC_CREATE_EVENT
46265446500: system.cpu0.workload.drivers: amdkfd create events(event_id: 0x3f, offset: 0x8000000000000000)
46270404000: system.cpu0.workload.drivers: ioctl: AMDKFD_IOC_CREATE_EVENT
46270404000: system.cpu0.workload.drivers: amdkfd create events(event_id: 0x40, offset: 0x8000000000000000)
46274768000: system.cpu0.workload.drivers: ioctl: AMDKFD_IOC_CREATE_EVENT
46274768000: system.cpu0.workload.drivers: amdkfd create events(event_id: 0x41, offset: 0x8000000000000000)
46279619500: system.cpu0.workload.drivers: ioctl: AMDKFD_IOC_CREATE_EVENT
46279619500: system.cpu0.workload.drivers: amdkfd create events(event_id: 0x42, offset: 0x8000000000000000)
46284198000: system.cpu0.workload.drivers: ioctl: AMDKFD_IOC_CREATE_EVENT
46284198000: system.cpu0.workload.drivers: amdkfd create events(event_id: 0x43, offset: 0x8000000000000000)
46288848000: system.cpu0.workload.drivers: ioctl: AMDKFD_IOC_CREATE_EVENT
46288848000: system.cpu0.workload.drivers: amdkfd create events(event_id: 0x44, offset: 0x8000000000000000)
46293268000: system.cpu0.workload.drivers: ioctl: AMDKFD_IOC_CREATE_EVENT
46293268000: system.cpu0.workload.drivers: amdkfd create events(event_id: 0x45, offset: 0x8000000000000000)
46298644000: system.cpu0.workload.drivers: ioctl: AMDKFD_IOC_CREATE_EVENT
46298644000: system.cpu0.workload.drivers: amdkfd create events(event_id: 0x46, offset: 0x8000000000000000)
46303116500: system.cpu0.workload.drivers: ioctl: AMDKFD_IOC_CREATE_EVENT
46303116500: system.cpu0.workload.drivers: amdkfd create events(event_id: 0x47, offset: 0x8000000000000000)
46307848000: system.cpu0.workload.drivers: ioctl: AMDKFD_IOC_CREATE_EVENT
46307848000: system.cpu0.workload.drivers: amdkfd create events(event_id: 0x48, offset: 0x8000000000000000)
46312158500: system.cpu0.workload.drivers: ioctl: AMDKFD_IOC_CREATE_EVENT
46312158500: system.cpu0.workload.drivers: amdkfd create events(event_id: 0x49, offset: 0x8000000000000000)
46316725500: system.cpu0.workload.drivers: ioctl: AMDKFD_IOC_CREATE_EVENT
46316725500: system.cpu0.workload.drivers: amdkfd create events(event_id: 0x4a, offset: 0x8000000000000000)
46321545500: system.cpu0.workload.drivers: ioctl: AMDKFD_IOC_CREATE_EVENT
46321545500: system.cpu0.workload.drivers: amdkfd create events(event_id: 0x4b, offset: 0x8000000000000000)
46326286500: system.cpu0.workload.drivers: ioctl: AMDKFD_IOC_CREATE_EVENT
46326286500: system.cpu0.workload.drivers: amdkfd create events(event_id: 0x4c, offset: 0x8000000000000000)
46330865000: system.cpu0.workload.drivers: ioctl: AMDKFD_IOC_CREATE_EVENT
46330865000: system.cpu0.workload.drivers: amdkfd create events(event_id: 0x4d, offset: 0x8000000000000000)
46338011500: system.cpu0.workload.drivers: ioctl: AMDKFD_IOC_CREATE_EVENT
46338011500: system.cpu0.workload.drivers: amdkfd create events(event_id: 0x4e, offset: 0x8000000000000000)
46342159500: system.cpu0.workload.drivers: ioctl: AMDKFD_IOC_CREATE_EVENT
46342159500: system.cpu0.workload.drivers: amdkfd create events(event_id: 0x4f, offset: 0x8000000000000000)
46346864000: system.cpu0.workload.drivers: ioctl: AMDKFD_IOC_CREATE_EVENT
46346864000: system.cpu0.workload.drivers: amdkfd create events(event_id: 0x50, offset: 0x8000000000000000)
46351196500: system.cpu0.workload.drivers: ioctl: AMDKFD_IOC_CREATE_EVENT
46351196500: system.cpu0.workload.drivers: amdkfd create events(event_id: 0x51, offset: 0x8000000000000000)
46355943000: system.cpu0.workload.drivers: ioctl: AMDKFD_IOC_CREATE_EVENT
46355943000: system.cpu0.workload.drivers: amdkfd create events(event_id: 0x52, offset: 0x8000000000000000)
46360417000: system.cpu0.workload.drivers: ioctl: AMDKFD_IOC_CREATE_EVENT
46360417000: system.cpu0.workload.drivers: amdkfd create events(event_id: 0x53, offset: 0x8000000000000000)
46364799500: system.cpu0.workload.drivers: ioctl: AMDKFD_IOC_CREATE_EVENT
46364799500: system.cpu0.workload.drivers: amdkfd create events(event_id: 0x54, offset: 0x8000000000000000)
46369424500: system.cpu0.workload.drivers: ioctl: AMDKFD_IOC_CREATE_EVENT
46369424500: system.cpu0.workload.drivers: amdkfd create events(event_id: 0x55, offset: 0x8000000000000000)
46374230000: system.cpu0.workload.drivers: ioctl: AMDKFD_IOC_CREATE_EVENT
46374230000: system.cpu0.workload.drivers: amdkfd create events(event_id: 0x56, offset: 0x8000000000000000)
46378692000: system.cpu0.workload.drivers: ioctl: AMDKFD_IOC_CREATE_EVENT
46378692000: system.cpu0.workload.drivers: amdkfd create events(event_id: 0x57, offset: 0x8000000000000000)
46383423500: system.cpu0.workload.drivers: ioctl: AMDKFD_IOC_CREATE_EVENT
46383423500: system.cpu0.workload.drivers: amdkfd create events(event_id: 0x58, offset: 0x8000000000000000)
46387846000: system.cpu0.workload.drivers: ioctl: AMDKFD_IOC_CREATE_EVENT
46387846000: system.cpu0.workload.drivers: amdkfd create events(event_id: 0x59, offset: 0x8000000000000000)
46392631000: system.cpu0.workload.drivers: ioctl: AMDKFD_IOC_CREATE_EVENT
46392631000: system.cpu0.workload.drivers: amdkfd create events(event_id: 0x5a, offset: 0x8000000000000000)
46396994000: system.cpu0.workload.drivers: ioctl: AMDKFD_IOC_CREATE_EVENT
46396994000: system.cpu0.workload.drivers: amdkfd create events(event_id: 0x5b, offset: 0x8000000000000000)
46402050500: system.cpu0.workload.drivers: ioctl: AMDKFD_IOC_CREATE_EVENT
46402050500: system.cpu0.workload.drivers: amdkfd create events(event_id: 0x5c, offset: 0x8000000000000000)
46406357500: system.cpu0.workload.drivers: ioctl: AMDKFD_IOC_CREATE_EVENT
46406357500: system.cpu0.workload.drivers: amdkfd create events(event_id: 0x5d, offset: 0x8000000000000000)
46411044000: system.cpu0.workload.drivers: ioctl: AMDKFD_IOC_CREATE_EVENT
46411044000: system.cpu0.workload.drivers: amdkfd create events(event_id: 0x5e, offset: 0x8000000000000000)
46415500500: system.cpu0.workload.drivers: ioctl: AMDKFD_IOC_CREATE_EVENT
46415500500: system.cpu0.workload.drivers: amdkfd create events(event_id: 0x5f, offset: 0x8000000000000000)
46420379000: system.cpu0.workload.drivers: ioctl: AMDKFD_IOC_CREATE_EVENT
46420379000: system.cpu0.workload.drivers: amdkfd create events(event_id: 0x60, offset: 0x8000000000000000)
46424851000: system.cpu0.workload.drivers: ioctl: AMDKFD_IOC_CREATE_EVENT
46424851000: system.cpu0.workload.drivers: amdkfd create events(event_id: 0x61, offset: 0x8000000000000000)
46429575500: system.cpu0.workload.drivers: ioctl: AMDKFD_IOC_CREATE_EVENT
46429575500: system.cpu0.workload.drivers: amdkfd create events(event_id: 0x62, offset: 0x8000000000000000)
46434385500: system.cpu0.workload.drivers: ioctl: AMDKFD_IOC_CREATE_EVENT
46434385500: system.cpu0.workload.drivers: amdkfd create events(event_id: 0x63, offset: 0x8000000000000000)
46439127000: system.cpu0.workload.drivers: ioctl: AMDKFD_IOC_CREATE_EVENT
46439127000: system.cpu0.workload.drivers: amdkfd create events(event_id: 0x64, offset: 0x8000000000000000)
46443617500: system.cpu0.workload.drivers: ioctl: AMDKFD_IOC_CREATE_EVENT
46443617500: system.cpu0.workload.drivers: amdkfd create events(event_id: 0x65, offset: 0x8000000000000000)
46448840500: system.cpu0.workload.drivers: ioctl: AMDKFD_IOC_CREATE_EVENT
46448840500: system.cpu0.workload.drivers: amdkfd create events(event_id: 0x66, offset: 0x8000000000000000)
46453348500: system.cpu0.workload.drivers: ioctl: AMDKFD_IOC_CREATE_EVENT
46453348500: system.cpu0.workload.drivers: amdkfd create events(event_id: 0x67, offset: 0x8000000000000000)
46457937000: system.cpu0.workload.drivers: ioctl: AMDKFD_IOC_CREATE_EVENT
46457937000: system.cpu0.workload.drivers: amdkfd create events(event_id: 0x68, offset: 0x8000000000000000)
46462277500: system.cpu0.workload.drivers: ioctl: AMDKFD_IOC_CREATE_EVENT
46462277500: system.cpu0.workload.drivers: amdkfd create events(event_id: 0x69, offset: 0x8000000000000000)
46467511500: system.cpu0.workload.drivers: ioctl: AMDKFD_IOC_CREATE_EVENT
46467511500: system.cpu0.workload.drivers: amdkfd create events(event_id: 0x6a, offset: 0x8000000000000000)
46472274000: system.cpu0.workload.drivers: ioctl: AMDKFD_IOC_CREATE_EVENT
46472274000: system.cpu0.workload.drivers: amdkfd create events(event_id: 0x6b, offset: 0x8000000000000000)
46476818000: system.cpu0.workload.drivers: ioctl: AMDKFD_IOC_CREATE_EVENT
46476818000: system.cpu0.workload.drivers: amdkfd create events(event_id: 0x6c, offset: 0x8000000000000000)
46481187500: system.cpu0.workload.drivers: ioctl: AMDKFD_IOC_CREATE_EVENT
46481187500: system.cpu0.workload.drivers: amdkfd create events(event_id: 0x6d, offset: 0x8000000000000000)
46486573000: system.cpu0.workload.drivers: ioctl: AMDKFD_IOC_CREATE_EVENT
46486573000: system.cpu0.workload.drivers: amdkfd create events(event_id: 0x6e, offset: 0x8000000000000000)
46490957000: system.cpu0.workload.drivers: ioctl: AMDKFD_IOC_CREATE_EVENT
46490957000: system.cpu0.workload.drivers: amdkfd create events(event_id: 0x6f, offset: 0x8000000000000000)
46495998500: system.cpu0.workload.drivers: ioctl: AMDKFD_IOC_CREATE_EVENT
46495998500: system.cpu0.workload.drivers: amdkfd create events(event_id: 0x70, offset: 0x8000000000000000)
46500584500: system.cpu0.workload.drivers: ioctl: AMDKFD_IOC_CREATE_EVENT
46500584500: system.cpu0.workload.drivers: amdkfd create events(event_id: 0x71, offset: 0x8000000000000000)
46505459500: system.cpu0.workload.drivers: ioctl: AMDKFD_IOC_CREATE_EVENT
46505459500: system.cpu0.workload.drivers: amdkfd create events(event_id: 0x72, offset: 0x8000000000000000)
46510020000: system.cpu0.workload.drivers: ioctl: AMDKFD_IOC_CREATE_EVENT
46510020000: system.cpu0.workload.drivers: amdkfd create events(event_id: 0x73, offset: 0x8000000000000000)
46514546500: system.cpu0.workload.drivers: ioctl: AMDKFD_IOC_CREATE_EVENT
46514546500: system.cpu0.workload.drivers: amdkfd create events(event_id: 0x74, offset: 0x8000000000000000)
46519070000: system.cpu0.workload.drivers: ioctl: AMDKFD_IOC_CREATE_EVENT
46519070000: system.cpu0.workload.drivers: amdkfd create events(event_id: 0x75, offset: 0x8000000000000000)
46524040500: system.cpu0.workload.drivers: ioctl: AMDKFD_IOC_CREATE_EVENT
46524040500: system.cpu0.workload.drivers: amdkfd create events(event_id: 0x76, offset: 0x8000000000000000)
46528391500: system.cpu0.workload.drivers: ioctl: AMDKFD_IOC_CREATE_EVENT
46528391500: system.cpu0.workload.drivers: amdkfd create events(event_id: 0x77, offset: 0x8000000000000000)
46533173000: system.cpu0.workload.drivers: ioctl: AMDKFD_IOC_CREATE_EVENT
46533173000: system.cpu0.workload.drivers: amdkfd create events(event_id: 0x78, offset: 0x8000000000000000)
46537764500: system.cpu0.workload.drivers: ioctl: AMDKFD_IOC_CREATE_EVENT
46537764500: system.cpu0.workload.drivers: amdkfd create events(event_id: 0x79, offset: 0x8000000000000000)
46542670000: system.cpu0.workload.drivers: ioctl: AMDKFD_IOC_CREATE_EVENT
46542670000: system.cpu0.workload.drivers: amdkfd create events(event_id: 0x7a, offset: 0x8000000000000000)
46547302000: system.cpu0.workload.drivers: ioctl: AMDKFD_IOC_CREATE_EVENT
46547302000: system.cpu0.workload.drivers: amdkfd create events(event_id: 0x7b, offset: 0x8000000000000000)
46551886500: system.cpu0.workload.drivers: ioctl: AMDKFD_IOC_CREATE_EVENT
46551886500: system.cpu0.workload.drivers: amdkfd create events(event_id: 0x7c, offset: 0x8000000000000000)
46556559000: system.cpu0.workload.drivers: ioctl: AMDKFD_IOC_CREATE_EVENT
46556559000: system.cpu0.workload.drivers: amdkfd create events(event_id: 0x7d, offset: 0x8000000000000000)
46561728500: system.cpu0.workload.drivers: ioctl: AMDKFD_IOC_CREATE_EVENT
46561728500: system.cpu0.workload.drivers: amdkfd create events(event_id: 0x7e, offset: 0x8000000000000000)
46566048500: system.cpu0.workload.drivers: ioctl: AMDKFD_IOC_CREATE_EVENT
46566048500: system.cpu0.workload.drivers: amdkfd create events(event_id: 0x7f, offset: 0x8000000000000000)
46570583000: system.cpu0.workload.drivers: ioctl: AMDKFD_IOC_CREATE_EVENT
46570583000: system.cpu0.workload.drivers: amdkfd create events(event_id: 0x80, offset: 0x8000000000000000)
46575307000: system.cpu0.workload.drivers: ioctl: AMDKFD_IOC_CREATE_EVENT
46575307000: system.cpu0.workload.drivers: amdkfd create events(event_id: 0x81, offset: 0x8000000000000000)
46580319500: system.cpu0.workload.drivers: ioctl: AMDKFD_IOC_CREATE_EVENT
46580319500: system.cpu0.workload.drivers: amdkfd create events(event_id: 0x82, offset: 0x8000000000000000)
46584788500: system.cpu0.workload.drivers: ioctl: AMDKFD_IOC_CREATE_EVENT
46584788500: system.cpu0.workload.drivers: amdkfd create events(event_id: 0x83, offset: 0x8000000000000000)
46589547000: system.cpu0.workload.drivers: ioctl: AMDKFD_IOC_CREATE_EVENT
46589547000: system.cpu0.workload.drivers: amdkfd create events(event_id: 0x84, offset: 0x8000000000000000)
46594150500: system.cpu0.workload.drivers: ioctl: AMDKFD_IOC_CREATE_EVENT
46594150500: system.cpu0.workload.drivers: amdkfd create events(event_id: 0x85, offset: 0x8000000000000000)
46598894000: system.cpu0.workload.drivers: ioctl: AMDKFD_IOC_CREATE_EVENT
46598894000: system.cpu0.workload.drivers: amdkfd create events(event_id: 0x86, offset: 0x8000000000000000)
46603460000: system.cpu0.workload.drivers: ioctl: AMDKFD_IOC_CREATE_EVENT
46603460000: system.cpu0.workload.drivers: amdkfd create events(event_id: 0x87, offset: 0x8000000000000000)
46608145000: system.cpu0.workload.drivers: ioctl: AMDKFD_IOC_CREATE_EVENT
46608145000: system.cpu0.workload.drivers: amdkfd create events(event_id: 0x88, offset: 0x8000000000000000)
46612534000: system.cpu0.workload.drivers: ioctl: AMDKFD_IOC_CREATE_EVENT
46612534000: system.cpu0.workload.drivers: amdkfd create events(event_id: 0x89, offset: 0x8000000000000000)
46617366500: system.cpu0.workload.drivers: ioctl: AMDKFD_IOC_CREATE_EVENT
46617366500: system.cpu0.workload.drivers: amdkfd create events(event_id: 0x8a, offset: 0x8000000000000000)
46621736500: system.cpu0.workload.drivers: ioctl: AMDKFD_IOC_CREATE_EVENT
46621736500: system.cpu0.workload.drivers: amdkfd create events(event_id: 0x8b, offset: 0x8000000000000000)
46626850500: system.cpu0.workload.drivers: ioctl: AMDKFD_IOC_CREATE_EVENT
46626850500: system.cpu0.workload.drivers: amdkfd create events(event_id: 0x8c, offset: 0x8000000000000000)
46631200500: system.cpu0.workload.drivers: ioctl: AMDKFD_IOC_CREATE_EVENT
46631200500: system.cpu0.workload.drivers: amdkfd create events(event_id: 0x8d, offset: 0x8000000000000000)
46639720500: system.cpu0.workload.drivers: ioctl: AMDKFD_IOC_CREATE_EVENT
46639720500: system.cpu0.workload.drivers: amdkfd create events(event_id: 0x8e, offset: 0x8000000000000000)
46643375500: system.cpu0.workload.drivers: ioctl: AMDKFD_IOC_CREATE_EVENT
46643375500: system.cpu0.workload.drivers: amdkfd create events(event_id: 0x8f, offset: 0x8000000000000000)
46647638000: system.cpu0.workload.drivers: ioctl: AMDKFD_IOC_CREATE_EVENT
46647638000: system.cpu0.workload.drivers: amdkfd create events(event_id: 0x90, offset: 0x8000000000000000)
46652076500: system.cpu0.workload.drivers: ioctl: AMDKFD_IOC_CREATE_EVENT
46652076500: system.cpu0.workload.drivers: amdkfd create events(event_id: 0x91, offset: 0x8000000000000000)
46657216000: system.cpu0.workload.drivers: ioctl: AMDKFD_IOC_CREATE_EVENT
46657216000: system.cpu0.workload.drivers: amdkfd create events(event_id: 0x92, offset: 0x8000000000000000)
46661538500: system.cpu0.workload.drivers: ioctl: AMDKFD_IOC_CREATE_EVENT
46661538500: system.cpu0.workload.drivers: amdkfd create events(event_id: 0x93, offset: 0x8000000000000000)
46666574500: system.cpu0.workload.drivers: ioctl: AMDKFD_IOC_CREATE_EVENT
46666574500: system.cpu0.workload.drivers: amdkfd create events(event_id: 0x94, offset: 0x8000000000000000)
46670916000: system.cpu0.workload.drivers: ioctl: AMDKFD_IOC_CREATE_EVENT
46670916000: system.cpu0.workload.drivers: amdkfd create events(event_id: 0x95, offset: 0x8000000000000000)
46675813000: system.cpu0.workload.drivers: ioctl: AMDKFD_IOC_CREATE_EVENT
46675813000: system.cpu0.workload.drivers: amdkfd create events(event_id: 0x96, offset: 0x8000000000000000)
46680368000: system.cpu0.workload.drivers: ioctl: AMDKFD_IOC_CREATE_EVENT
46680368000: system.cpu0.workload.drivers: amdkfd create events(event_id: 0x97, offset: 0x8000000000000000)
46684963000: system.cpu0.workload.drivers: ioctl: AMDKFD_IOC_CREATE_EVENT
46684963000: system.cpu0.workload.drivers: amdkfd create events(event_id: 0x98, offset: 0x8000000000000000)
46689355500: system.cpu0.workload.drivers: ioctl: AMDKFD_IOC_CREATE_EVENT
46689355500: system.cpu0.workload.drivers: amdkfd create events(event_id: 0x99, offset: 0x8000000000000000)
46693976000: system.cpu0.workload.drivers: ioctl: AMDKFD_IOC_CREATE_EVENT
46693976000: system.cpu0.workload.drivers: amdkfd create events(event_id: 0x9a, offset: 0x8000000000000000)
46698529500: system.cpu0.workload.drivers: ioctl: AMDKFD_IOC_CREATE_EVENT
46698529500: system.cpu0.workload.drivers: amdkfd create events(event_id: 0x9b, offset: 0x8000000000000000)
46703450500: system.cpu0.workload.drivers: ioctl: AMDKFD_IOC_CREATE_EVENT
46703450500: system.cpu0.workload.drivers: amdkfd create events(event_id: 0x9c, offset: 0x8000000000000000)
46707816000: system.cpu0.workload.drivers: ioctl: AMDKFD_IOC_CREATE_EVENT
46707816000: system.cpu0.workload.drivers: amdkfd create events(event_id: 0x9d, offset: 0x8000000000000000)
46713085500: system.cpu0.workload.drivers: ioctl: AMDKFD_IOC_CREATE_EVENT
46713085500: system.cpu0.workload.drivers: amdkfd create events(event_id: 0x9e, offset: 0x8000000000000000)
46717617500: system.cpu0.workload.drivers: ioctl: AMDKFD_IOC_CREATE_EVENT
46717617500: system.cpu0.workload.drivers: amdkfd create events(event_id: 0x9f, offset: 0x8000000000000000)
46722519500: system.cpu0.workload.drivers: ioctl: AMDKFD_IOC_CREATE_EVENT
46722519500: system.cpu0.workload.drivers: amdkfd create events(event_id: 0xa0, offset: 0x8000000000000000)
46726853000: system.cpu0.workload.drivers: ioctl: AMDKFD_IOC_CREATE_EVENT
46726853000: system.cpu0.workload.drivers: amdkfd create events(event_id: 0xa1, offset: 0x8000000000000000)
46731766500: system.cpu0.workload.drivers: ioctl: AMDKFD_IOC_CREATE_EVENT
46731766500: system.cpu0.workload.drivers: amdkfd create events(event_id: 0xa2, offset: 0x8000000000000000)
46736323500: system.cpu0.workload.drivers: ioctl: AMDKFD_IOC_CREATE_EVENT
46736323500: system.cpu0.workload.drivers: amdkfd create events(event_id: 0xa3, offset: 0x8000000000000000)
46741060500: system.cpu0.workload.drivers: ioctl: AMDKFD_IOC_CREATE_EVENT
46741060500: system.cpu0.workload.drivers: amdkfd create events(event_id: 0xa4, offset: 0x8000000000000000)
46745570000: system.cpu0.workload.drivers: ioctl: AMDKFD_IOC_CREATE_EVENT
46745570000: system.cpu0.workload.drivers: amdkfd create events(event_id: 0xa5, offset: 0x8000000000000000)
46750475000: system.cpu0.workload.drivers: ioctl: AMDKFD_IOC_CREATE_EVENT
46750475000: system.cpu0.workload.drivers: amdkfd create events(event_id: 0xa6, offset: 0x8000000000000000)
46754775000: system.cpu0.workload.drivers: ioctl: AMDKFD_IOC_CREATE_EVENT
46754775000: system.cpu0.workload.drivers: amdkfd create events(event_id: 0xa7, offset: 0x8000000000000000)
46759541000: system.cpu0.workload.drivers: ioctl: AMDKFD_IOC_CREATE_EVENT
46759541000: system.cpu0.workload.drivers: amdkfd create events(event_id: 0xa8, offset: 0x8000000000000000)
46763843500: system.cpu0.workload.drivers: ioctl: AMDKFD_IOC_CREATE_EVENT
46763843500: system.cpu0.workload.drivers: amdkfd create events(event_id: 0xa9, offset: 0x8000000000000000)
46768890000: system.cpu0.workload.drivers: ioctl: AMDKFD_IOC_CREATE_EVENT
46768890000: system.cpu0.workload.drivers: amdkfd create events(event_id: 0xaa, offset: 0x8000000000000000)
46773236500: system.cpu0.workload.drivers: ioctl: AMDKFD_IOC_CREATE_EVENT
46773236500: system.cpu0.workload.drivers: amdkfd create events(event_id: 0xab, offset: 0x8000000000000000)
46777939000: system.cpu0.workload.drivers: ioctl: AMDKFD_IOC_CREATE_EVENT
46777939000: system.cpu0.workload.drivers: amdkfd create events(event_id: 0xac, offset: 0x8000000000000000)
46782706000: system.cpu0.workload.drivers: ioctl: AMDKFD_IOC_CREATE_EVENT
46782706000: system.cpu0.workload.drivers: amdkfd create events(event_id: 0xad, offset: 0x8000000000000000)
46787468000: system.cpu0.workload.drivers: ioctl: AMDKFD_IOC_CREATE_EVENT
46787468000: system.cpu0.workload.drivers: amdkfd create events(event_id: 0xae, offset: 0x8000000000000000)
46791875000: system.cpu0.workload.drivers: ioctl: AMDKFD_IOC_CREATE_EVENT
46791875000: system.cpu0.workload.drivers: amdkfd create events(event_id: 0xaf, offset: 0x8000000000000000)
46796685000: system.cpu0.workload.drivers: ioctl: AMDKFD_IOC_CREATE_EVENT
46796685000: system.cpu0.workload.drivers: amdkfd create events(event_id: 0xb0, offset: 0x8000000000000000)
46801152500: system.cpu0.workload.drivers: ioctl: AMDKFD_IOC_CREATE_EVENT
46801152500: system.cpu0.workload.drivers: amdkfd create events(event_id: 0xb1, offset: 0x8000000000000000)
46805987500: system.cpu0.workload.drivers: ioctl: AMDKFD_IOC_CREATE_EVENT
46805987500: system.cpu0.workload.drivers: amdkfd create events(event_id: 0xb2, offset: 0x8000000000000000)
46810303000: system.cpu0.workload.drivers: ioctl: AMDKFD_IOC_CREATE_EVENT
46810303000: system.cpu0.workload.drivers: amdkfd create events(event_id: 0xb3, offset: 0x8000000000000000)
46815104500: system.cpu0.workload.drivers: ioctl: AMDKFD_IOC_CREATE_EVENT
46815104500: system.cpu0.workload.drivers: amdkfd create events(event_id: 0xb4, offset: 0x8000000000000000)
46820071000: system.cpu0.workload.drivers: ioctl: AMDKFD_IOC_CREATE_EVENT
46820071000: system.cpu0.workload.drivers: amdkfd create events(event_id: 0xb5, offset: 0x8000000000000000)
46824902000: system.cpu0.workload.drivers: ioctl: AMDKFD_IOC_CREATE_EVENT
46824902000: system.cpu0.workload.drivers: amdkfd create events(event_id: 0xb6, offset: 0x8000000000000000)
46829227000: system.cpu0.workload.drivers: ioctl: AMDKFD_IOC_CREATE_EVENT
46829227000: system.cpu0.workload.drivers: amdkfd create events(event_id: 0xb7, offset: 0x8000000000000000)
46833837000: system.cpu0.workload.drivers: ioctl: AMDKFD_IOC_CREATE_EVENT
46833837000: system.cpu0.workload.drivers: amdkfd create events(event_id: 0xb8, offset: 0x8000000000000000)
46838253500: system.cpu0.workload.drivers: ioctl: AMDKFD_IOC_CREATE_EVENT
46838253500: system.cpu0.workload.drivers: amdkfd create events(event_id: 0xb9, offset: 0x8000000000000000)
46843006000: system.cpu0.workload.drivers: ioctl: AMDKFD_IOC_CREATE_EVENT
46843006000: system.cpu0.workload.drivers: amdkfd create events(event_id: 0xba, offset: 0x8000000000000000)
46847382500: system.cpu0.workload.drivers: ioctl: AMDKFD_IOC_CREATE_EVENT
46847382500: system.cpu0.workload.drivers: amdkfd create events(event_id: 0xbb, offset: 0x8000000000000000)
46852340500: system.cpu0.workload.drivers: ioctl: AMDKFD_IOC_CREATE_EVENT
46852340500: system.cpu0.workload.drivers: amdkfd create events(event_id: 0xbc, offset: 0x8000000000000000)
46856712500: system.cpu0.workload.drivers: ioctl: AMDKFD_IOC_CREATE_EVENT
46856712500: system.cpu0.workload.drivers: amdkfd create events(event_id: 0xbd, offset: 0x8000000000000000)
46861712500: system.cpu0.workload.drivers: ioctl: AMDKFD_IOC_CREATE_EVENT
46861712500: system.cpu0.workload.drivers: amdkfd create events(event_id: 0xbe, offset: 0x8000000000000000)
46865863000: system.cpu0.workload.drivers: ioctl: AMDKFD_IOC_CREATE_EVENT
46865863000: system.cpu0.workload.drivers: amdkfd create events(event_id: 0xbf, offset: 0x8000000000000000)
46871012500: system.cpu0.workload.drivers: ioctl: AMDKFD_IOC_CREATE_EVENT
46871012500: system.cpu0.workload.drivers: amdkfd create events(event_id: 0xc0, offset: 0x8000000000000000)
46875774000: system.cpu0.workload.drivers: ioctl: AMDKFD_IOC_CREATE_EVENT
46875774000: system.cpu0.workload.drivers: amdkfd create events(event_id: 0xc1, offset: 0x8000000000000000)
46880359500: system.cpu0.workload.drivers: ioctl: AMDKFD_IOC_CREATE_EVENT
46880359500: system.cpu0.workload.drivers: amdkfd create events(event_id: 0xc2, offset: 0x8000000000000000)
46884791500: system.cpu0.workload.drivers: ioctl: AMDKFD_IOC_CREATE_EVENT
46884791500: system.cpu0.workload.drivers: amdkfd create events(event_id: 0xc3, offset: 0x8000000000000000)
46890120000: system.cpu0.workload.drivers: ioctl: AMDKFD_IOC_CREATE_EVENT
46890120000: system.cpu0.workload.drivers: amdkfd create events(event_id: 0xc4, offset: 0x8000000000000000)
46894799500: system.cpu0.workload.drivers: ioctl: AMDKFD_IOC_CREATE_EVENT
46894799500: system.cpu0.workload.drivers: amdkfd create events(event_id: 0xc5, offset: 0x8000000000000000)
46899691000: system.cpu0.workload.drivers: ioctl: AMDKFD_IOC_CREATE_EVENT
46899691000: system.cpu0.workload.drivers: amdkfd create events(event_id: 0xc6, offset: 0x8000000000000000)
46904243000: system.cpu0.workload.drivers: ioctl: AMDKFD_IOC_CREATE_EVENT
46904243000: system.cpu0.workload.drivers: amdkfd create events(event_id: 0xc7, offset: 0x8000000000000000)
46909062500: system.cpu0.workload.drivers: ioctl: AMDKFD_IOC_CREATE_EVENT
46909062500: system.cpu0.workload.drivers: amdkfd create events(event_id: 0xc8, offset: 0x8000000000000000)
46913396000: system.cpu0.workload.drivers: ioctl: AMDKFD_IOC_CREATE_EVENT
46913396000: system.cpu0.workload.drivers: amdkfd create events(event_id: 0xc9, offset: 0x8000000000000000)
46918360500: system.cpu0.workload.drivers: ioctl: AMDKFD_IOC_CREATE_EVENT
46918360500: system.cpu0.workload.drivers: amdkfd create events(event_id: 0xca, offset: 0x8000000000000000)
46922729500: system.cpu0.workload.drivers: ioctl: AMDKFD_IOC_CREATE_EVENT
46922729500: system.cpu0.workload.drivers: amdkfd create events(event_id: 0xcb, offset: 0x8000000000000000)
46927835500: system.cpu0.workload.drivers: ioctl: AMDKFD_IOC_CREATE_EVENT
46927835500: system.cpu0.workload.drivers: amdkfd create events(event_id: 0xcc, offset: 0x8000000000000000)
46932167500: system.cpu0.workload.drivers: ioctl: AMDKFD_IOC_CREATE_EVENT
46932167500: system.cpu0.workload.drivers: amdkfd create events(event_id: 0xcd, offset: 0x8000000000000000)
46936943500: system.cpu0.workload.drivers: ioctl: AMDKFD_IOC_CREATE_EVENT
46936943500: system.cpu0.workload.drivers: amdkfd create events(event_id: 0xce, offset: 0x8000000000000000)
46941315500: system.cpu0.workload.drivers: ioctl: AMDKFD_IOC_CREATE_EVENT
46941315500: system.cpu0.workload.drivers: amdkfd create events(event_id: 0xcf, offset: 0x8000000000000000)
46946313000: system.cpu0.workload.drivers: ioctl: AMDKFD_IOC_CREATE_EVENT
46946313000: system.cpu0.workload.drivers: amdkfd create events(event_id: 0xd0, offset: 0x8000000000000000)
46950727500: system.cpu0.workload.drivers: ioctl: AMDKFD_IOC_CREATE_EVENT
46950727500: system.cpu0.workload.drivers: amdkfd create events(event_id: 0xd1, offset: 0x8000000000000000)
46955362000: system.cpu0.workload.drivers: ioctl: AMDKFD_IOC_CREATE_EVENT
46955362000: system.cpu0.workload.drivers: amdkfd create events(event_id: 0xd2, offset: 0x8000000000000000)
46959767000: system.cpu0.workload.drivers: ioctl: AMDKFD_IOC_CREATE_EVENT
46959767000: system.cpu0.workload.drivers: amdkfd create events(event_id: 0xd3, offset: 0x8000000000000000)
46964948000: system.cpu0.workload.drivers: ioctl: AMDKFD_IOC_CREATE_EVENT
46964948000: system.cpu0.workload.drivers: amdkfd create events(event_id: 0xd4, offset: 0x8000000000000000)
46969693000: system.cpu0.workload.drivers: ioctl: AMDKFD_IOC_CREATE_EVENT
46969693000: system.cpu0.workload.drivers: amdkfd create events(event_id: 0xd5, offset: 0x8000000000000000)
46974562000: system.cpu0.workload.drivers: ioctl: AMDKFD_IOC_CREATE_EVENT
46974562000: system.cpu0.workload.drivers: amdkfd create events(event_id: 0xd6, offset: 0x8000000000000000)
46979213000: system.cpu0.workload.drivers: ioctl: AMDKFD_IOC_CREATE_EVENT
46979213000: system.cpu0.workload.drivers: amdkfd create events(event_id: 0xd7, offset: 0x8000000000000000)
46983961000: system.cpu0.workload.drivers: ioctl: AMDKFD_IOC_CREATE_EVENT
46983961000: system.cpu0.workload.drivers: amdkfd create events(event_id: 0xd8, offset: 0x8000000000000000)
46988376000: system.cpu0.workload.drivers: ioctl: AMDKFD_IOC_CREATE_EVENT
46988376000: system.cpu0.workload.drivers: amdkfd create events(event_id: 0xd9, offset: 0x8000000000000000)
46993028000: system.cpu0.workload.drivers: ioctl: AMDKFD_IOC_CREATE_EVENT
46993028000: system.cpu0.workload.drivers: amdkfd create events(event_id: 0xda, offset: 0x8000000000000000)
46997532000: system.cpu0.workload.drivers: ioctl: AMDKFD_IOC_CREATE_EVENT
46997532000: system.cpu0.workload.drivers: amdkfd create events(event_id: 0xdb, offset: 0x8000000000000000)
47002674500: system.cpu0.workload.drivers: ioctl: AMDKFD_IOC_CREATE_EVENT
47002674500: system.cpu0.workload.drivers: amdkfd create events(event_id: 0xdc, offset: 0x8000000000000000)
47007019500: system.cpu0.workload.drivers: ioctl: AMDKFD_IOC_CREATE_EVENT
47007019500: system.cpu0.workload.drivers: amdkfd create events(event_id: 0xdd, offset: 0x8000000000000000)
47011704500: system.cpu0.workload.drivers: ioctl: AMDKFD_IOC_CREATE_EVENT
47011704500: system.cpu0.workload.drivers: amdkfd create events(event_id: 0xde, offset: 0x8000000000000000)
47016081000: system.cpu0.workload.drivers: ioctl: AMDKFD_IOC_CREATE_EVENT
47016081000: system.cpu0.workload.drivers: amdkfd create events(event_id: 0xdf, offset: 0x8000000000000000)
47020914500: system.cpu0.workload.drivers: ioctl: AMDKFD_IOC_CREATE_EVENT
47020914500: system.cpu0.workload.drivers: amdkfd create events(event_id: 0xe0, offset: 0x8000000000000000)
47025520500: system.cpu0.workload.drivers: ioctl: AMDKFD_IOC_CREATE_EVENT
47025520500: system.cpu0.workload.drivers: amdkfd create events(event_id: 0xe1, offset: 0x8000000000000000)
47030301000: system.cpu0.workload.drivers: ioctl: AMDKFD_IOC_CREATE_EVENT
47030301000: system.cpu0.workload.drivers: amdkfd create events(event_id: 0xe2, offset: 0x8000000000000000)
47034872500: system.cpu0.workload.drivers: ioctl: AMDKFD_IOC_CREATE_EVENT
47034872500: system.cpu0.workload.drivers: amdkfd create events(event_id: 0xe3, offset: 0x8000000000000000)
47040272500: system.cpu0.workload.drivers: ioctl: AMDKFD_IOC_CREATE_EVENT
47040272500: system.cpu0.workload.drivers: amdkfd create events(event_id: 0xe4, offset: 0x8000000000000000)
47044642500: system.cpu0.workload.drivers: ioctl: AMDKFD_IOC_CREATE_EVENT
47044642500: system.cpu0.workload.drivers: amdkfd create events(event_id: 0xe5, offset: 0x8000000000000000)
47049735500: system.cpu0.workload.drivers: ioctl: AMDKFD_IOC_CREATE_EVENT
47049735500: system.cpu0.workload.drivers: amdkfd create events(event_id: 0xe6, offset: 0x8000000000000000)
47054346500: system.cpu0.workload.drivers: ioctl: AMDKFD_IOC_CREATE_EVENT
47054346500: system.cpu0.workload.drivers: amdkfd create events(event_id: 0xe7, offset: 0x8000000000000000)
47058889000: system.cpu0.workload.drivers: ioctl: AMDKFD_IOC_CREATE_EVENT
47058889000: system.cpu0.workload.drivers: amdkfd create events(event_id: 0xe8, offset: 0x8000000000000000)
47063273000: system.cpu0.workload.drivers: ioctl: AMDKFD_IOC_CREATE_EVENT
47063273000: system.cpu0.workload.drivers: amdkfd create events(event_id: 0xe9, offset: 0x8000000000000000)
47067832000: system.cpu0.workload.drivers: ioctl: AMDKFD_IOC_CREATE_EVENT
47067832000: system.cpu0.workload.drivers: amdkfd create events(event_id: 0xea, offset: 0x8000000000000000)
47072927000: system.cpu0.workload.drivers: ioctl: AMDKFD_IOC_CREATE_EVENT
47072927000: system.cpu0.workload.drivers: amdkfd create events(event_id: 0xeb, offset: 0x8000000000000000)
47077942000: system.cpu0.workload.drivers: ioctl: AMDKFD_IOC_CREATE_EVENT
47077942000: system.cpu0.workload.drivers: amdkfd create events(event_id: 0xec, offset: 0x8000000000000000)
47082280000: system.cpu0.workload.drivers: ioctl: AMDKFD_IOC_CREATE_EVENT
47082280000: system.cpu0.workload.drivers: amdkfd create events(event_id: 0xed, offset: 0x8000000000000000)
47087170000: system.cpu0.workload.drivers: ioctl: AMDKFD_IOC_CREATE_EVENT
47087170000: system.cpu0.workload.drivers: amdkfd create events(event_id: 0xee, offset: 0x8000000000000000)
47091549500: system.cpu0.workload.drivers: ioctl: AMDKFD_IOC_CREATE_EVENT
47091549500: system.cpu0.workload.drivers: amdkfd create events(event_id: 0xef, offset: 0x8000000000000000)
47096174500: system.cpu0.workload.drivers: ioctl: AMDKFD_IOC_CREATE_EVENT
47096174500: system.cpu0.workload.drivers: amdkfd create events(event_id: 0xf0, offset: 0x8000000000000000)
47100574500: system.cpu0.workload.drivers: ioctl: AMDKFD_IOC_CREATE_EVENT
47100574500: system.cpu0.workload.drivers: amdkfd create events(event_id: 0xf1, offset: 0x8000000000000000)
47105315000: system.cpu0.workload.drivers: ioctl: AMDKFD_IOC_CREATE_EVENT
47105315000: system.cpu0.workload.drivers: amdkfd create events(event_id: 0xf2, offset: 0x8000000000000000)
47109683500: system.cpu0.workload.drivers: ioctl: AMDKFD_IOC_CREATE_EVENT
47109683500: system.cpu0.workload.drivers: amdkfd create events(event_id: 0xf3, offset: 0x8000000000000000)
47114944500: system.cpu0.workload.drivers: ioctl: AMDKFD_IOC_CREATE_EVENT
47114944500: system.cpu0.workload.drivers: amdkfd create events(event_id: 0xf4, offset: 0x8000000000000000)
47119327500: system.cpu0.workload.drivers: ioctl: AMDKFD_IOC_CREATE_EVENT
47119327500: system.cpu0.workload.drivers: amdkfd create events(event_id: 0xf5, offset: 0x8000000000000000)
47124261000: system.cpu0.workload.drivers: ioctl: AMDKFD_IOC_CREATE_EVENT
47124261000: system.cpu0.workload.drivers: amdkfd create events(event_id: 0xf6, offset: 0x8000000000000000)
47128670500: system.cpu0.workload.drivers: ioctl: AMDKFD_IOC_CREATE_EVENT
47128670500: system.cpu0.workload.drivers: amdkfd create events(event_id: 0xf7, offset: 0x8000000000000000)
47133379500: system.cpu0.workload.drivers: ioctl: AMDKFD_IOC_CREATE_EVENT
47133379500: system.cpu0.workload.drivers: amdkfd create events(event_id: 0xf8, offset: 0x8000000000000000)
47137956500: system.cpu0.workload.drivers: ioctl: AMDKFD_IOC_CREATE_EVENT
47137956500: system.cpu0.workload.drivers: amdkfd create events(event_id: 0xf9, offset: 0x8000000000000000)
47142754500: system.cpu0.workload.drivers: ioctl: AMDKFD_IOC_CREATE_EVENT
47142754500: system.cpu0.workload.drivers: amdkfd create events(event_id: 0xfa, offset: 0x8000000000000000)
47147152000: system.cpu0.workload.drivers: ioctl: AMDKFD_IOC_CREATE_EVENT
47147152000: system.cpu0.workload.drivers: amdkfd create events(event_id: 0xfb, offset: 0x8000000000000000)
47152170500: system.cpu0.workload.drivers: ioctl: AMDKFD_IOC_CREATE_EVENT
47152170500: system.cpu0.workload.drivers: amdkfd create events(event_id: 0xfc, offset: 0x8000000000000000)
47156647000: system.cpu0.workload.drivers: ioctl: AMDKFD_IOC_CREATE_EVENT
47156647000: system.cpu0.workload.drivers: amdkfd create events(event_id: 0xfd, offset: 0x8000000000000000)
47161307500: system.cpu0.workload.drivers: ioctl: AMDKFD_IOC_CREATE_EVENT
47161307500: system.cpu0.workload.drivers: amdkfd create events(event_id: 0xfe, offset: 0x8000000000000000)
47165779000: system.cpu0.workload.drivers: ioctl: AMDKFD_IOC_CREATE_EVENT
47165779000: system.cpu0.workload.drivers: amdkfd create events(event_id: 0xff, offset: 0x8000000000000000)
47170370000: system.cpu0.workload.drivers: ioctl: AMDKFD_IOC_CREATE_EVENT
47170370000: system.cpu0.workload.drivers: amdkfd create events(event_id: 0x100, offset: 0x8000000000000000)
47174934000: system.cpu0.workload.drivers: ioctl: AMDKFD_IOC_CREATE_EVENT
47174934000: system.cpu0.workload.drivers: amdkfd create events(event_id: 0x101, offset: 0x8000000000000000)
47179666500: system.cpu0.workload.drivers: ioctl: AMDKFD_IOC_CREATE_EVENT
47179666500: system.cpu0.workload.drivers: amdkfd create events(event_id: 0x102, offset: 0x8000000000000000)
47184009500: system.cpu0.workload.drivers: ioctl: AMDKFD_IOC_CREATE_EVENT
47184009500: system.cpu0.workload.drivers: amdkfd create events(event_id: 0x103, offset: 0x8000000000000000)
47189573500: system.cpu0.workload.drivers: ioctl: AMDKFD_IOC_CREATE_EVENT
47189573500: system.cpu0.workload.drivers: amdkfd create events(event_id: 0x104, offset: 0x8000000000000000)
47194116000: system.cpu0.workload.drivers: ioctl: AMDKFD_IOC_CREATE_EVENT
47194116000: system.cpu0.workload.drivers: amdkfd create events(event_id: 0x105, offset: 0x8000000000000000)
47198961000: system.cpu0.workload.drivers: ioctl: AMDKFD_IOC_CREATE_EVENT
47198961000: system.cpu0.workload.drivers: amdkfd create events(event_id: 0x106, offset: 0x8000000000000000)
47203396500: system.cpu0.workload.drivers: ioctl: AMDKFD_IOC_CREATE_EVENT
47203396500: system.cpu0.workload.drivers: amdkfd create events(event_id: 0x107, offset: 0x8000000000000000)
47208074000: system.cpu0.workload.drivers: ioctl: AMDKFD_IOC_CREATE_EVENT
47208074000: system.cpu0.workload.drivers: amdkfd create events(event_id: 0x108, offset: 0x8000000000000000)
47212663500: system.cpu0.workload.drivers: ioctl: AMDKFD_IOC_CREATE_EVENT
47212663500: system.cpu0.workload.drivers: amdkfd create events(event_id: 0x109, offset: 0x8000000000000000)
47217295500: system.cpu0.workload.drivers: ioctl: AMDKFD_IOC_CREATE_EVENT
47217295500: system.cpu0.workload.drivers: amdkfd create events(event_id: 0x10a, offset: 0x8000000000000000)
47221607500: system.cpu0.workload.drivers: ioctl: AMDKFD_IOC_CREATE_EVENT
47221607500: system.cpu0.workload.drivers: amdkfd create events(event_id: 0x10b, offset: 0x8000000000000000)
47226335500: system.cpu0.workload.drivers: ioctl: AMDKFD_IOC_CREATE_EVENT
47226335500: system.cpu0.workload.drivers: amdkfd create events(event_id: 0x10c, offset: 0x8000000000000000)
47230694500: system.cpu0.workload.drivers: ioctl: AMDKFD_IOC_CREATE_EVENT
47230694500: system.cpu0.workload.drivers: amdkfd create events(event_id: 0x10d, offset: 0x8000000000000000)
47238243500: system.cpu0.workload.drivers: ioctl: AMDKFD_IOC_CREATE_EVENT
47238243500: system.cpu0.workload.drivers: amdkfd create events(event_id: 0x10e, offset: 0x8000000000000000)
47241961000: system.cpu0.workload.drivers: ioctl: AMDKFD_IOC_CREATE_EVENT
47241961000: system.cpu0.workload.drivers: amdkfd create events(event_id: 0x10f, offset: 0x8000000000000000)
47245922500: system.cpu0.workload.drivers: ioctl: AMDKFD_IOC_CREATE_EVENT
47245922500: system.cpu0.workload.drivers: amdkfd create events(event_id: 0x110, offset: 0x8000000000000000)
47249634000: system.cpu0.workload.drivers: ioctl: AMDKFD_IOC_CREATE_EVENT
47249634000: system.cpu0.workload.drivers: amdkfd create events(event_id: 0x111, offset: 0x8000000000000000)
47253461500: system.cpu0.workload.drivers: ioctl: AMDKFD_IOC_CREATE_EVENT
47253461500: system.cpu0.workload.drivers: amdkfd create events(event_id: 0x112, offset: 0x8000000000000000)
47257947500: system.cpu0.workload.drivers: ioctl: AMDKFD_IOC_CREATE_EVENT
47257947500: system.cpu0.workload.drivers: amdkfd create events(event_id: 0x113, offset: 0x8000000000000000)
47262575500: system.cpu0.workload.drivers: ioctl: AMDKFD_IOC_CREATE_EVENT
47262575500: system.cpu0.workload.drivers: amdkfd create events(event_id: 0x114, offset: 0x8000000000000000)
47267066000: system.cpu0.workload.drivers: ioctl: AMDKFD_IOC_CREATE_EVENT
47267066000: system.cpu0.workload.drivers: amdkfd create events(event_id: 0x115, offset: 0x8000000000000000)
47272247000: system.cpu0.workload.drivers: ioctl: AMDKFD_IOC_CREATE_EVENT
47272247000: system.cpu0.workload.drivers: amdkfd create events(event_id: 0x116, offset: 0x8000000000000000)
47276660500: system.cpu0.workload.drivers: ioctl: AMDKFD_IOC_CREATE_EVENT
47276660500: system.cpu0.workload.drivers: amdkfd create events(event_id: 0x117, offset: 0x8000000000000000)
47281260500: system.cpu0.workload.drivers: ioctl: AMDKFD_IOC_CREATE_EVENT
47281260500: system.cpu0.workload.drivers: amdkfd create events(event_id: 0x118, offset: 0x8000000000000000)
47285593000: system.cpu0.workload.drivers: ioctl: AMDKFD_IOC_CREATE_EVENT
47285593000: system.cpu0.workload.drivers: amdkfd create events(event_id: 0x119, offset: 0x8000000000000000)
47290392000: system.cpu0.workload.drivers: ioctl: AMDKFD_IOC_CREATE_EVENT
47290392000: system.cpu0.workload.drivers: amdkfd create events(event_id: 0x11a, offset: 0x8000000000000000)
47295015500: system.cpu0.workload.drivers: ioctl: AMDKFD_IOC_CREATE_EVENT
47295015500: system.cpu0.workload.drivers: amdkfd create events(event_id: 0x11b, offset: 0x8000000000000000)
47300083500: system.cpu0.workload.drivers: ioctl: AMDKFD_IOC_CREATE_EVENT
47300083500: system.cpu0.workload.drivers: amdkfd create events(event_id: 0x11c, offset: 0x8000000000000000)
47304373000: system.cpu0.workload.drivers: ioctl: AMDKFD_IOC_CREATE_EVENT
47304373000: system.cpu0.workload.drivers: amdkfd create events(event_id: 0x11d, offset: 0x8000000000000000)
47309566000: system.cpu0.workload.drivers: ioctl: AMDKFD_IOC_CREATE_EVENT
47309566000: system.cpu0.workload.drivers: amdkfd create events(event_id: 0x11e, offset: 0x8000000000000000)
47313993500: system.cpu0.workload.drivers: ioctl: AMDKFD_IOC_CREATE_EVENT
47313993500: system.cpu0.workload.drivers: amdkfd create events(event_id: 0x11f, offset: 0x8000000000000000)
47318894500: system.cpu0.workload.drivers: ioctl: AMDKFD_IOC_CREATE_EVENT
47318894500: system.cpu0.workload.drivers: amdkfd create events(event_id: 0x120, offset: 0x8000000000000000)
47323414500: system.cpu0.workload.drivers: ioctl: AMDKFD_IOC_CREATE_EVENT
47323414500: system.cpu0.workload.drivers: amdkfd create events(event_id: 0x121, offset: 0x8000000000000000)
47328094000: system.cpu0.workload.drivers: ioctl: AMDKFD_IOC_CREATE_EVENT
47328094000: system.cpu0.workload.drivers: amdkfd create events(event_id: 0x122, offset: 0x8000000000000000)
47332620000: system.cpu0.workload.drivers: ioctl: AMDKFD_IOC_CREATE_EVENT
47332620000: system.cpu0.workload.drivers: amdkfd create events(event_id: 0x123, offset: 0x8000000000000000)
47337280000: system.cpu0.workload.drivers: ioctl: AMDKFD_IOC_CREATE_EVENT
47337280000: system.cpu0.workload.drivers: amdkfd create events(event_id: 0x124, offset: 0x8000000000000000)
47341823500: system.cpu0.workload.drivers: ioctl: AMDKFD_IOC_CREATE_EVENT
47341823500: system.cpu0.workload.drivers: amdkfd create events(event_id: 0x125, offset: 0x8000000000000000)
47346995000: system.cpu0.workload.drivers: ioctl: AMDKFD_IOC_CREATE_EVENT
47346995000: system.cpu0.workload.drivers: amdkfd create events(event_id: 0x126, offset: 0x8000000000000000)
47351978500: system.cpu0.workload.drivers: ioctl: AMDKFD_IOC_CREATE_EVENT
47351978500: system.cpu0.workload.drivers: amdkfd create events(event_id: 0x127, offset: 0x8000000000000000)
47356841500: system.cpu0.workload.drivers: ioctl: AMDKFD_IOC_CREATE_EVENT
47356841500: system.cpu0.workload.drivers: amdkfd create events(event_id: 0x128, offset: 0x8000000000000000)
47361239000: system.cpu0.workload.drivers: ioctl: AMDKFD_IOC_CREATE_EVENT
47361239000: system.cpu0.workload.drivers: amdkfd create events(event_id: 0x129, offset: 0x8000000000000000)
47366108000: system.cpu0.workload.drivers: ioctl: AMDKFD_IOC_CREATE_EVENT
47366108000: system.cpu0.workload.drivers: amdkfd create events(event_id: 0x12a, offset: 0x8000000000000000)
47370674000: system.cpu0.workload.drivers: ioctl: AMDKFD_IOC_CREATE_EVENT
47370674000: system.cpu0.workload.drivers: amdkfd create events(event_id: 0x12b, offset: 0x8000000000000000)
47375536500: system.cpu0.workload.drivers: ioctl: AMDKFD_IOC_CREATE_EVENT
47375536500: system.cpu0.workload.drivers: amdkfd create events(event_id: 0x12c, offset: 0x8000000000000000)
47379900500: system.cpu0.workload.drivers: ioctl: AMDKFD_IOC_CREATE_EVENT
47379900500: system.cpu0.workload.drivers: amdkfd create events(event_id: 0x12d, offset: 0x8000000000000000)
47385266500: system.cpu0.workload.drivers: ioctl: AMDKFD_IOC_CREATE_EVENT
47385266500: system.cpu0.workload.drivers: amdkfd create events(event_id: 0x12e, offset: 0x8000000000000000)
47389800500: system.cpu0.workload.drivers: ioctl: AMDKFD_IOC_CREATE_EVENT
47389800500: system.cpu0.workload.drivers: amdkfd create events(event_id: 0x12f, offset: 0x8000000000000000)
47394481500: system.cpu0.workload.drivers: ioctl: AMDKFD_IOC_CREATE_EVENT
47394481500: system.cpu0.workload.drivers: amdkfd create events(event_id: 0x130, offset: 0x8000000000000000)
47398809000: system.cpu0.workload.drivers: ioctl: AMDKFD_IOC_CREATE_EVENT
47398809000: system.cpu0.workload.drivers: amdkfd create events(event_id: 0x131, offset: 0x8000000000000000)
47403631500: system.cpu0.workload.drivers: ioctl: AMDKFD_IOC_CREATE_EVENT
47403631500: system.cpu0.workload.drivers: amdkfd create events(event_id: 0x132, offset: 0x8000000000000000)
47407987000: system.cpu0.workload.drivers: ioctl: AMDKFD_IOC_CREATE_EVENT
47407987000: system.cpu0.workload.drivers: amdkfd create events(event_id: 0x133, offset: 0x8000000000000000)
47412550000: system.cpu0.workload.drivers: ioctl: AMDKFD_IOC_CREATE_EVENT
47412550000: system.cpu0.workload.drivers: amdkfd create events(event_id: 0x134, offset: 0x8000000000000000)
47417371500: system.cpu0.workload.drivers: ioctl: AMDKFD_IOC_CREATE_EVENT
47417371500: system.cpu0.workload.drivers: amdkfd create events(event_id: 0x135, offset: 0x8000000000000000)
47422136500: system.cpu0.workload.drivers: ioctl: AMDKFD_IOC_CREATE_EVENT
47422136500: system.cpu0.workload.drivers: amdkfd create events(event_id: 0x136, offset: 0x8000000000000000)
47426511500: system.cpu0.workload.drivers: ioctl: AMDKFD_IOC_CREATE_EVENT
47426511500: system.cpu0.workload.drivers: amdkfd create events(event_id: 0x137, offset: 0x8000000000000000)
47431123000: system.cpu0.workload.drivers: ioctl: AMDKFD_IOC_CREATE_EVENT
47431123000: system.cpu0.workload.drivers: amdkfd create events(event_id: 0x138, offset: 0x8000000000000000)
47435893000: system.cpu0.workload.drivers: ioctl: AMDKFD_IOC_CREATE_EVENT
47435893000: system.cpu0.workload.drivers: amdkfd create events(event_id: 0x139, offset: 0x8000000000000000)
47440528000: system.cpu0.workload.drivers: ioctl: AMDKFD_IOC_CREATE_EVENT
47440528000: system.cpu0.workload.drivers: amdkfd create events(event_id: 0x13a, offset: 0x8000000000000000)
47444897500: system.cpu0.workload.drivers: ioctl: AMDKFD_IOC_CREATE_EVENT
47444897500: system.cpu0.workload.drivers: amdkfd create events(event_id: 0x13b, offset: 0x8000000000000000)
47449566500: system.cpu0.workload.drivers: ioctl: AMDKFD_IOC_CREATE_EVENT
47449566500: system.cpu0.workload.drivers: amdkfd create events(event_id: 0x13c, offset: 0x8000000000000000)
47454508500: system.cpu0.workload.drivers: ioctl: AMDKFD_IOC_CREATE_EVENT
47454508500: system.cpu0.workload.drivers: amdkfd create events(event_id: 0x13d, offset: 0x8000000000000000)
47459840000: system.cpu0.workload.drivers: ioctl: AMDKFD_IOC_CREATE_EVENT
47459840000: system.cpu0.workload.drivers: amdkfd create events(event_id: 0x13e, offset: 0x8000000000000000)
47464174000: system.cpu0.workload.drivers: ioctl: AMDKFD_IOC_CREATE_EVENT
47464174000: system.cpu0.workload.drivers: amdkfd create events(event_id: 0x13f, offset: 0x8000000000000000)
47468819000: system.cpu0.workload.drivers: ioctl: AMDKFD_IOC_CREATE_EVENT
47468819000: system.cpu0.workload.drivers: amdkfd create events(event_id: 0x140, offset: 0x8000000000000000)
47473204000: system.cpu0.workload.drivers: ioctl: AMDKFD_IOC_CREATE_EVENT
47473204000: system.cpu0.workload.drivers: amdkfd create events(event_id: 0x141, offset: 0x8000000000000000)
47477997000: system.cpu0.workload.drivers: ioctl: AMDKFD_IOC_CREATE_EVENT
47477997000: system.cpu0.workload.drivers: amdkfd create events(event_id: 0x142, offset: 0x8000000000000000)
47482382500: system.cpu0.workload.drivers: ioctl: AMDKFD_IOC_CREATE_EVENT
47482382500: system.cpu0.workload.drivers: amdkfd create events(event_id: 0x143, offset: 0x8000000000000000)
47486946000: system.cpu0.workload.drivers: ioctl: AMDKFD_IOC_CREATE_EVENT
47486946000: system.cpu0.workload.drivers: amdkfd create events(event_id: 0x144, offset: 0x8000000000000000)
47491426500: system.cpu0.workload.drivers: ioctl: AMDKFD_IOC_CREATE_EVENT
47491426500: system.cpu0.workload.drivers: amdkfd create events(event_id: 0x145, offset: 0x8000000000000000)
47496171500: system.cpu0.workload.drivers: ioctl: AMDKFD_IOC_CREATE_EVENT
47496171500: system.cpu0.workload.drivers: amdkfd create events(event_id: 0x146, offset: 0x8000000000000000)
47500397500: system.cpu0.workload.drivers: ioctl: AMDKFD_IOC_CREATE_EVENT
47500397500: system.cpu0.workload.drivers: amdkfd create events(event_id: 0x147, offset: 0x8000000000000000)
47505648500: system.cpu0.workload.drivers: ioctl: AMDKFD_IOC_CREATE_EVENT
47505648500: system.cpu0.workload.drivers: amdkfd create events(event_id: 0x148, offset: 0x8000000000000000)
47510135000: system.cpu0.workload.drivers: ioctl: AMDKFD_IOC_CREATE_EVENT
47510135000: system.cpu0.workload.drivers: amdkfd create events(event_id: 0x149, offset: 0x8000000000000000)
47514734000: system.cpu0.workload.drivers: ioctl: AMDKFD_IOC_CREATE_EVENT
47514734000: system.cpu0.workload.drivers: amdkfd create events(event_id: 0x14a, offset: 0x8000000000000000)
47519189500: system.cpu0.workload.drivers: ioctl: AMDKFD_IOC_CREATE_EVENT
47519189500: system.cpu0.workload.drivers: amdkfd create events(event_id: 0x14b, offset: 0x8000000000000000)
47523871500: system.cpu0.workload.drivers: ioctl: AMDKFD_IOC_CREATE_EVENT
47523871500: system.cpu0.workload.drivers: amdkfd create events(event_id: 0x14c, offset: 0x8000000000000000)
47528632500: system.cpu0.workload.drivers: ioctl: AMDKFD_IOC_CREATE_EVENT
47528632500: system.cpu0.workload.drivers: amdkfd create events(event_id: 0x14d, offset: 0x8000000000000000)
47533872500: system.cpu0.workload.drivers: ioctl: AMDKFD_IOC_CREATE_EVENT
47533872500: system.cpu0.workload.drivers: amdkfd create events(event_id: 0x14e, offset: 0x8000000000000000)
47538208500: system.cpu0.workload.drivers: ioctl: AMDKFD_IOC_CREATE_EVENT
47538208500: system.cpu0.workload.drivers: amdkfd create events(event_id: 0x14f, offset: 0x8000000000000000)
47542833500: system.cpu0.workload.drivers: ioctl: AMDKFD_IOC_CREATE_EVENT
47542833500: system.cpu0.workload.drivers: amdkfd create events(event_id: 0x150, offset: 0x8000000000000000)
47547265000: system.cpu0.workload.drivers: ioctl: AMDKFD_IOC_CREATE_EVENT
47547265000: system.cpu0.workload.drivers: amdkfd create events(event_id: 0x151, offset: 0x8000000000000000)
47552256500: system.cpu0.workload.drivers: ioctl: AMDKFD_IOC_CREATE_EVENT
47552256500: system.cpu0.workload.drivers: amdkfd create events(event_id: 0x152, offset: 0x8000000000000000)
47556636500: system.cpu0.workload.drivers: ioctl: AMDKFD_IOC_CREATE_EVENT
47556636500: system.cpu0.workload.drivers: amdkfd create events(event_id: 0x153, offset: 0x8000000000000000)
47561334500: system.cpu0.workload.drivers: ioctl: AMDKFD_IOC_CREATE_EVENT
47561334500: system.cpu0.workload.drivers: amdkfd create events(event_id: 0x154, offset: 0x8000000000000000)
47565893500: system.cpu0.workload.drivers: ioctl: AMDKFD_IOC_CREATE_EVENT
47565893500: system.cpu0.workload.drivers: amdkfd create events(event_id: 0x155, offset: 0x8000000000000000)
47570679500: system.cpu0.workload.drivers: ioctl: AMDKFD_IOC_CREATE_EVENT
47570679500: system.cpu0.workload.drivers: amdkfd create events(event_id: 0x156, offset: 0x8000000000000000)
47575323500: system.cpu0.workload.drivers: ioctl: AMDKFD_IOC_CREATE_EVENT
47575323500: system.cpu0.workload.drivers: amdkfd create events(event_id: 0x157, offset: 0x8000000000000000)
47580046000: system.cpu0.workload.drivers: ioctl: AMDKFD_IOC_CREATE_EVENT
47580046000: system.cpu0.workload.drivers: amdkfd create events(event_id: 0x158, offset: 0x8000000000000000)
47584462000: system.cpu0.workload.drivers: ioctl: AMDKFD_IOC_CREATE_EVENT
47584462000: system.cpu0.workload.drivers: amdkfd create events(event_id: 0x159, offset: 0x8000000000000000)
47589069000: system.cpu0.workload.drivers: ioctl: AMDKFD_IOC_CREATE_EVENT
47589069000: system.cpu0.workload.drivers: amdkfd create events(event_id: 0x15a, offset: 0x8000000000000000)
47593485000: system.cpu0.workload.drivers: ioctl: AMDKFD_IOC_CREATE_EVENT
47593485000: system.cpu0.workload.drivers: amdkfd create events(event_id: 0x15b, offset: 0x8000000000000000)
47598225500: system.cpu0.workload.drivers: ioctl: AMDKFD_IOC_CREATE_EVENT
47598225500: system.cpu0.workload.drivers: amdkfd create events(event_id: 0x15c, offset: 0x8000000000000000)
47602946500: system.cpu0.workload.drivers: ioctl: AMDKFD_IOC_CREATE_EVENT
47602946500: system.cpu0.workload.drivers: amdkfd create events(event_id: 0x15d, offset: 0x8000000000000000)
47608561000: system.cpu0.workload.drivers: ioctl: AMDKFD_IOC_CREATE_EVENT
47608561000: system.cpu0.workload.drivers: amdkfd create events(event_id: 0x15e, offset: 0x8000000000000000)
47613080500: system.cpu0.workload.drivers: ioctl: AMDKFD_IOC_CREATE_EVENT
47613080500: system.cpu0.workload.drivers: amdkfd create events(event_id: 0x15f, offset: 0x8000000000000000)
47617929500: system.cpu0.workload.drivers: ioctl: AMDKFD_IOC_CREATE_EVENT
47617929500: system.cpu0.workload.drivers: amdkfd create events(event_id: 0x160, offset: 0x8000000000000000)
47622340000: system.cpu0.workload.drivers: ioctl: AMDKFD_IOC_CREATE_EVENT
47622340000: system.cpu0.workload.drivers: amdkfd create events(event_id: 0x161, offset: 0x8000000000000000)
47627106500: system.cpu0.workload.drivers: ioctl: AMDKFD_IOC_CREATE_EVENT
47627106500: system.cpu0.workload.drivers: amdkfd create events(event_id: 0x162, offset: 0x8000000000000000)
47631633000: system.cpu0.workload.drivers: ioctl: AMDKFD_IOC_CREATE_EVENT
47631633000: system.cpu0.workload.drivers: amdkfd create events(event_id: 0x163, offset: 0x8000000000000000)
47636208500: system.cpu0.workload.drivers: ioctl: AMDKFD_IOC_CREATE_EVENT
47636208500: system.cpu0.workload.drivers: amdkfd create events(event_id: 0x164, offset: 0x8000000000000000)
47640884500: system.cpu0.workload.drivers: ioctl: AMDKFD_IOC_CREATE_EVENT
47640884500: system.cpu0.workload.drivers: amdkfd create events(event_id: 0x165, offset: 0x8000000000000000)
47646005500: system.cpu0.workload.drivers: ioctl: AMDKFD_IOC_CREATE_EVENT
47646005500: system.cpu0.workload.drivers: amdkfd create events(event_id: 0x166, offset: 0x8000000000000000)
47650282500: system.cpu0.workload.drivers: ioctl: AMDKFD_IOC_CREATE_EVENT
47650282500: system.cpu0.workload.drivers: amdkfd create events(event_id: 0x167, offset: 0x8000000000000000)
47655129500: system.cpu0.workload.drivers: ioctl: AMDKFD_IOC_CREATE_EVENT
47655129500: system.cpu0.workload.drivers: amdkfd create events(event_id: 0x168, offset: 0x8000000000000000)
47659500000: system.cpu0.workload.drivers: ioctl: AMDKFD_IOC_CREATE_EVENT
47659500000: system.cpu0.workload.drivers: amdkfd create events(event_id: 0x169, offset: 0x8000000000000000)
47664234000: system.cpu0.workload.drivers: ioctl: AMDKFD_IOC_CREATE_EVENT
47664234000: system.cpu0.workload.drivers: amdkfd create events(event_id: 0x16a, offset: 0x8000000000000000)
47668750500: system.cpu0.workload.drivers: ioctl: AMDKFD_IOC_CREATE_EVENT
47668750500: system.cpu0.workload.drivers: amdkfd create events(event_id: 0x16b, offset: 0x8000000000000000)
47673381500: system.cpu0.workload.drivers: ioctl: AMDKFD_IOC_CREATE_EVENT
47673381500: system.cpu0.workload.drivers: amdkfd create events(event_id: 0x16c, offset: 0x8000000000000000)
47677756000: system.cpu0.workload.drivers: ioctl: AMDKFD_IOC_CREATE_EVENT
47677756000: system.cpu0.workload.drivers: amdkfd create events(event_id: 0x16d, offset: 0x8000000000000000)
47682666000: system.cpu0.workload.drivers: ioctl: AMDKFD_IOC_CREATE_EVENT
47682666000: system.cpu0.workload.drivers: amdkfd create events(event_id: 0x16e, offset: 0x8000000000000000)
47687339500: system.cpu0.workload.drivers: ioctl: AMDKFD_IOC_CREATE_EVENT
47687339500: system.cpu0.workload.drivers: amdkfd create events(event_id: 0x16f, offset: 0x8000000000000000)
47691935000: system.cpu0.workload.drivers: ioctl: AMDKFD_IOC_CREATE_EVENT
47691935000: system.cpu0.workload.drivers: amdkfd create events(event_id: 0x170, offset: 0x8000000000000000)
47696338500: system.cpu0.workload.drivers: ioctl: AMDKFD_IOC_CREATE_EVENT
47696338500: system.cpu0.workload.drivers: amdkfd create events(event_id: 0x171, offset: 0x8000000000000000)
47700966000: system.cpu0.workload.drivers: ioctl: AMDKFD_IOC_CREATE_EVENT
47700966000: system.cpu0.workload.drivers: amdkfd create events(event_id: 0x172, offset: 0x8000000000000000)
47705886000: system.cpu0.workload.drivers: ioctl: AMDKFD_IOC_CREATE_EVENT
47705886000: system.cpu0.workload.drivers: amdkfd create events(event_id: 0x173, offset: 0x8000000000000000)
47710469500: system.cpu0.workload.drivers: ioctl: AMDKFD_IOC_CREATE_EVENT
47710469500: system.cpu0.workload.drivers: amdkfd create events(event_id: 0x174, offset: 0x8000000000000000)
47714844500: system.cpu0.workload.drivers: ioctl: AMDKFD_IOC_CREATE_EVENT
47714844500: system.cpu0.workload.drivers: amdkfd create events(event_id: 0x175, offset: 0x8000000000000000)
47720297000: system.cpu0.workload.drivers: ioctl: AMDKFD_IOC_CREATE_EVENT
47720297000: system.cpu0.workload.drivers: amdkfd create events(event_id: 0x176, offset: 0x8000000000000000)
47724690000: system.cpu0.workload.drivers: ioctl: AMDKFD_IOC_CREATE_EVENT
47724690000: system.cpu0.workload.drivers: amdkfd create events(event_id: 0x177, offset: 0x8000000000000000)
47729532000: system.cpu0.workload.drivers: ioctl: AMDKFD_IOC_CREATE_EVENT
47729532000: system.cpu0.workload.drivers: amdkfd create events(event_id: 0x178, offset: 0x8000000000000000)
47733918500: system.cpu0.workload.drivers: ioctl: AMDKFD_IOC_CREATE_EVENT
47733918500: system.cpu0.workload.drivers: amdkfd create events(event_id: 0x179, offset: 0x8000000000000000)
47738674500: system.cpu0.workload.drivers: ioctl: AMDKFD_IOC_CREATE_EVENT
47738674500: system.cpu0.workload.drivers: amdkfd create events(event_id: 0x17a, offset: 0x8000000000000000)
47743044500: system.cpu0.workload.drivers: ioctl: AMDKFD_IOC_CREATE_EVENT
47743044500: system.cpu0.workload.drivers: amdkfd create events(event_id: 0x17b, offset: 0x8000000000000000)
47747598000: system.cpu0.workload.drivers: ioctl: AMDKFD_IOC_CREATE_EVENT
47747598000: system.cpu0.workload.drivers: amdkfd create events(event_id: 0x17c, offset: 0x8000000000000000)
47751887000: system.cpu0.workload.drivers: ioctl: AMDKFD_IOC_CREATE_EVENT
47751887000: system.cpu0.workload.drivers: amdkfd create events(event_id: 0x17d, offset: 0x8000000000000000)
47757023000: system.cpu0.workload.drivers: ioctl: AMDKFD_IOC_CREATE_EVENT
47757023000: system.cpu0.workload.drivers: amdkfd create events(event_id: 0x17e, offset: 0x8000000000000000)
47761363500: system.cpu0.workload.drivers: ioctl: AMDKFD_IOC_CREATE_EVENT
47761363500: system.cpu0.workload.drivers: amdkfd create events(event_id: 0x17f, offset: 0x8000000000000000)
47766200500: system.cpu0.workload.drivers: ioctl: AMDKFD_IOC_CREATE_EVENT
47766200500: system.cpu0.workload.drivers: amdkfd create events(event_id: 0x180, offset: 0x8000000000000000)
47771063500: system.cpu0.workload.drivers: ioctl: AMDKFD_IOC_CREATE_EVENT
[...]
93958769500: system.cpu0.workload.drivers: amdkfd destroying event 396
93961830500: system.cpu0.workload.drivers: ioctl: AMDKFD_IOC_DESTROY_EVENT
93961830500: system.cpu0.workload.drivers: amdkfd destroying event 397
93965037500: system.cpu0.workload.drivers: ioctl: AMDKFD_IOC_DESTROY_EVENT
93965037500: system.cpu0.workload.drivers: amdkfd destroying event 398
93968598000: system.cpu0.workload.drivers: ioctl: AMDKFD_IOC_DESTROY_EVENT
93968598000: system.cpu0.workload.drivers: amdkfd destroying event 399
93971984000: system.cpu0.workload.drivers: ioctl: AMDKFD_IOC_DESTROY_EVENT
93971984000: system.cpu0.workload.drivers: amdkfd destroying event 400
93975047000: system.cpu0.workload.drivers: ioctl: AMDKFD_IOC_DESTROY_EVENT
93975047000: system.cpu0.workload.drivers: amdkfd destroying event 401
93978084500: system.cpu0.workload.drivers: ioctl: AMDKFD_IOC_DESTROY_EVENT
93978084500: system.cpu0.workload.drivers: amdkfd destroying event 402
93981085500: system.cpu0.workload.drivers: ioctl: AMDKFD_IOC_DESTROY_EVENT
93981085500: system.cpu0.workload.drivers: amdkfd destroying event 403
93984689000: system.cpu0.workload.drivers: ioctl: AMDKFD_IOC_DESTROY_EVENT
93984689000: system.cpu0.workload.drivers: amdkfd destroying event 404
93988180000: system.cpu0.workload.drivers: ioctl: AMDKFD_IOC_DESTROY_EVENT
93988180000: system.cpu0.workload.drivers: amdkfd destroying event 405
93991159500: system.cpu0.workload.drivers: ioctl: AMDKFD_IOC_DESTROY_EVENT
93991159500: system.cpu0.workload.drivers: amdkfd destroying event 406
93994126500: system.cpu0.workload.drivers: ioctl: AMDKFD_IOC_DESTROY_EVENT
93994126500: system.cpu0.workload.drivers: amdkfd destroying event 407
93997508000: system.cpu0.workload.drivers: ioctl: AMDKFD_IOC_DESTROY_EVENT
93997508000: system.cpu0.workload.drivers: amdkfd destroying event 408
94000412500: system.cpu0.workload.drivers: ioctl: AMDKFD_IOC_DESTROY_EVENT
94000412500: system.cpu0.workload.drivers: amdkfd destroying event 409
94003409000: system.cpu0.workload.drivers: ioctl: AMDKFD_IOC_DESTROY_EVENT
94003409000: system.cpu0.workload.drivers: amdkfd destroying event 410
94006486500: system.cpu0.workload.drivers: ioctl: AMDKFD_IOC_DESTROY_EVENT
94006486500: system.cpu0.workload.drivers: amdkfd destroying event 411
94011426000: system.cpu0.workload.drivers: ioctl: AMDKFD_IOC_DESTROY_EVENT
94011426000: system.cpu0.workload.drivers: amdkfd destroying event 412
94014190000: system.cpu0.workload.drivers: ioctl: AMDKFD_IOC_DESTROY_EVENT
94014190000: system.cpu0.workload.drivers: amdkfd destroying event 413
94017154500: system.cpu0.workload.drivers: ioctl: AMDKFD_IOC_DESTROY_EVENT
94017154500: system.cpu0.workload.drivers: amdkfd destroying event 414
94019883500: system.cpu0.workload.drivers: ioctl: AMDKFD_IOC_DESTROY_EVENT
94019883500: system.cpu0.workload.drivers: amdkfd destroying event 415
94022955500: system.cpu0.workload.drivers: ioctl: AMDKFD_IOC_DESTROY_EVENT
94022955500: system.cpu0.workload.drivers: amdkfd destroying event 416
94025830500: system.cpu0.workload.drivers: ioctl: AMDKFD_IOC_DESTROY_EVENT
94025830500: system.cpu0.workload.drivers: amdkfd destroying event 417
94028725000: system.cpu0.workload.drivers: ioctl: AMDKFD_IOC_DESTROY_EVENT
94028725000: system.cpu0.workload.drivers: amdkfd destroying event 418
94031492500: system.cpu0.workload.drivers: ioctl: AMDKFD_IOC_DESTROY_EVENT
94031492500: system.cpu0.workload.drivers: amdkfd destroying event 419
94034527500: system.cpu0.workload.drivers: ioctl: AMDKFD_IOC_DESTROY_EVENT
94034527500: system.cpu0.workload.drivers: amdkfd destroying event 420
94037299000: system.cpu0.workload.drivers: ioctl: AMDKFD_IOC_DESTROY_EVENT
94037299000: system.cpu0.workload.drivers: amdkfd destroying event 421
94040111500: system.cpu0.workload.drivers: ioctl: AMDKFD_IOC_DESTROY_EVENT
94040111500: system.cpu0.workload.drivers: amdkfd destroying event 422
94042781500: system.cpu0.workload.drivers: ioctl: AMDKFD_IOC_DESTROY_EVENT
94042781500: system.cpu0.workload.drivers: amdkfd destroying event 423
94045560000: system.cpu0.workload.drivers: ioctl: AMDKFD_IOC_DESTROY_EVENT
94045560000: system.cpu0.workload.drivers: amdkfd destroying event 424
94048170500: system.cpu0.workload.drivers: ioctl: AMDKFD_IOC_DESTROY_EVENT
94048170500: system.cpu0.workload.drivers: amdkfd destroying event 425
94050976000: system.cpu0.workload.drivers: ioctl: AMDKFD_IOC_DESTROY_EVENT
94050976000: system.cpu0.workload.drivers: amdkfd destroying event 426
94053874500: system.cpu0.workload.drivers: ioctl: AMDKFD_IOC_DESTROY_EVENT
94053874500: system.cpu0.workload.drivers: amdkfd destroying event 427
94058214500: system.cpu0.workload.drivers: ioctl: AMDKFD_IOC_DESTROY_EVENT
94058214500: system.cpu0.workload.drivers: amdkfd destroying event 428
94060850000: system.cpu0.workload.drivers: ioctl: AMDKFD_IOC_DESTROY_EVENT
94060850000: system.cpu0.workload.drivers: amdkfd destroying event 429
94063568500: system.cpu0.workload.drivers: ioctl: AMDKFD_IOC_DESTROY_EVENT
94063568500: system.cpu0.workload.drivers: amdkfd destroying event 430
94066358500: system.cpu0.workload.drivers: ioctl: AMDKFD_IOC_DESTROY_EVENT
94066358500: system.cpu0.workload.drivers: amdkfd destroying event 431
94069382500: system.cpu0.workload.drivers: ioctl: AMDKFD_IOC_DESTROY_EVENT
94069382500: system.cpu0.workload.drivers: amdkfd destroying event 432
94072612500: system.cpu0.workload.drivers: ioctl: AMDKFD_IOC_DESTROY_EVENT
94072612500: system.cpu0.workload.drivers: amdkfd destroying event 433
94075296000: system.cpu0.workload.drivers: ioctl: AMDKFD_IOC_DESTROY_EVENT
94075296000: system.cpu0.workload.drivers: amdkfd destroying event 434
94078043500: system.cpu0.workload.drivers: ioctl: AMDKFD_IOC_DESTROY_EVENT
94078043500: system.cpu0.workload.drivers: amdkfd destroying event 435
94081415000: system.cpu0.workload.drivers: ioctl: AMDKFD_IOC_DESTROY_EVENT
94081415000: system.cpu0.workload.drivers: amdkfd destroying event 436
94084173000: system.cpu0.workload.drivers: ioctl: AMDKFD_IOC_DESTROY_EVENT
94084173000: system.cpu0.workload.drivers: amdkfd destroying event 437
94087423500: system.cpu0.workload.drivers: ioctl: AMDKFD_IOC_DESTROY_EVENT
94087423500: system.cpu0.workload.drivers: amdkfd destroying event 438
94090055500: system.cpu0.workload.drivers: ioctl: AMDKFD_IOC_DESTROY_EVENT
94090055500: system.cpu0.workload.drivers: amdkfd destroying event 439
94093039000: system.cpu0.workload.drivers: ioctl: AMDKFD_IOC_DESTROY_EVENT
94093039000: system.cpu0.workload.drivers: amdkfd destroying event 440
94095536500: system.cpu0.workload.drivers: ioctl: AMDKFD_IOC_DESTROY_EVENT
94095536500: system.cpu0.workload.drivers: amdkfd destroying event 441
94098180000: system.cpu0.workload.drivers: ioctl: AMDKFD_IOC_DESTROY_EVENT
94098180000: system.cpu0.workload.drivers: amdkfd destroying event 442
94100922500: system.cpu0.workload.drivers: ioctl: AMDKFD_IOC_DESTROY_EVENT
94100922500: system.cpu0.workload.drivers: amdkfd destroying event 443
94105045500: system.cpu0.workload.drivers: ioctl: AMDKFD_IOC_DESTROY_EVENT
94105045500: system.cpu0.workload.drivers: amdkfd destroying event 444
94107622000: system.cpu0.workload.drivers: ioctl: AMDKFD_IOC_DESTROY_EVENT
94107622000: system.cpu0.workload.drivers: amdkfd destroying event 445
94110312000: system.cpu0.workload.drivers: ioctl: AMDKFD_IOC_DESTROY_EVENT
94110312000: system.cpu0.workload.drivers: amdkfd destroying event 446
94112940500: system.cpu0.workload.drivers: ioctl: AMDKFD_IOC_DESTROY_EVENT
94112940500: system.cpu0.workload.drivers: amdkfd destroying event 447
94115756000: system.cpu0.workload.drivers: ioctl: AMDKFD_IOC_DESTROY_EVENT
94115756000: system.cpu0.workload.drivers: amdkfd destroying event 448
94118352500: system.cpu0.workload.drivers: ioctl: AMDKFD_IOC_DESTROY_EVENT
94118352500: system.cpu0.workload.drivers: amdkfd destroying event 449
94121011000: system.cpu0.workload.drivers: ioctl: AMDKFD_IOC_DESTROY_EVENT
94121011000: system.cpu0.workload.drivers: amdkfd destroying event 450
94123569500: system.cpu0.workload.drivers: ioctl: AMDKFD_IOC_DESTROY_EVENT
94123569500: system.cpu0.workload.drivers: amdkfd destroying event 451
94126422500: system.cpu0.workload.drivers: ioctl: AMDKFD_IOC_DESTROY_EVENT
94126422500: system.cpu0.workload.drivers: amdkfd destroying event 452
94129035000: system.cpu0.workload.drivers: ioctl: AMDKFD_IOC_DESTROY_EVENT
94129035000: system.cpu0.workload.drivers: amdkfd destroying event 453
94131665500: system.cpu0.workload.drivers: ioctl: AMDKFD_IOC_DESTROY_EVENT
94131665500: system.cpu0.workload.drivers: amdkfd destroying event 454
94134114000: system.cpu0.workload.drivers: ioctl: AMDKFD_IOC_DESTROY_EVENT
94134114000: system.cpu0.workload.drivers: amdkfd destroying event 455
94136755500: system.cpu0.workload.drivers: ioctl: AMDKFD_IOC_DESTROY_EVENT
94136755500: system.cpu0.workload.drivers: amdkfd destroying event 456
94139359000: system.cpu0.workload.drivers: ioctl: AMDKFD_IOC_DESTROY_EVENT
94139359000: system.cpu0.workload.drivers: amdkfd destroying event 457
94141900500: system.cpu0.workload.drivers: ioctl: AMDKFD_IOC_DESTROY_EVENT
94141900500: system.cpu0.workload.drivers: amdkfd destroying event 458
94144534000: system.cpu0.workload.drivers: ioctl: AMDKFD_IOC_DESTROY_EVENT
94144534000: system.cpu0.workload.drivers: amdkfd destroying event 459
94148685000: system.cpu0.workload.drivers: ioctl: AMDKFD_IOC_DESTROY_EVENT
94148685000: system.cpu0.workload.drivers: amdkfd destroying event 460
94151268500: system.cpu0.workload.drivers: ioctl: AMDKFD_IOC_DESTROY_EVENT
94151268500: system.cpu0.workload.drivers: amdkfd destroying event 461
94153877500: system.cpu0.workload.drivers: ioctl: AMDKFD_IOC_DESTROY_EVENT
94153877500: system.cpu0.workload.drivers: amdkfd destroying event 462
94156287000: system.cpu0.workload.drivers: ioctl: AMDKFD_IOC_DESTROY_EVENT
94156287000: system.cpu0.workload.drivers: amdkfd destroying event 463
94159039000: system.cpu0.workload.drivers: ioctl: AMDKFD_IOC_DESTROY_EVENT
94159039000: system.cpu0.workload.drivers: amdkfd destroying event 464
94161540000: system.cpu0.workload.drivers: ioctl: AMDKFD_IOC_DESTROY_EVENT
94161540000: system.cpu0.workload.drivers: amdkfd destroying event 465
94164124000: system.cpu0.workload.drivers: ioctl: AMDKFD_IOC_DESTROY_EVENT
94164124000: system.cpu0.workload.drivers: amdkfd destroying event 466
94167759000: system.cpu0.workload.drivers: ioctl: AMDKFD_IOC_DESTROY_EVENT
94167759000: system.cpu0.workload.drivers: amdkfd destroying event 467
94170737000: system.cpu0.workload.drivers: ioctl: AMDKFD_IOC_DESTROY_EVENT
94170737000: system.cpu0.workload.drivers: amdkfd destroying event 468
94173330500: system.cpu0.workload.drivers: ioctl: AMDKFD_IOC_DESTROY_EVENT
94173330500: system.cpu0.workload.drivers: amdkfd destroying event 469
94176012500: system.cpu0.workload.drivers: ioctl: AMDKFD_IOC_DESTROY_EVENT
94176012500: system.cpu0.workload.drivers: amdkfd destroying event 470
94178386500: system.cpu0.workload.drivers: ioctl: AMDKFD_IOC_DESTROY_EVENT
94178386500: system.cpu0.workload.drivers: amdkfd destroying event 471
94181106500: system.cpu0.workload.drivers: ioctl: AMDKFD_IOC_DESTROY_EVENT
94181106500: system.cpu0.workload.drivers: amdkfd destroying event 472
94183593500: system.cpu0.workload.drivers: ioctl: AMDKFD_IOC_DESTROY_EVENT
94183593500: system.cpu0.workload.drivers: amdkfd destroying event 473
94186163500: system.cpu0.workload.drivers: ioctl: AMDKFD_IOC_DESTROY_EVENT
94186163500: system.cpu0.workload.drivers: amdkfd destroying event 474
94188633500: system.cpu0.workload.drivers: ioctl: AMDKFD_IOC_DESTROY_EVENT
94188633500: system.cpu0.workload.drivers: amdkfd destroying event 475
94191848500: system.cpu0.workload.drivers: ioctl: AMDKFD_IOC_DESTROY_EVENT
94191848500: system.cpu0.workload.drivers: amdkfd destroying event 476
94194860500: system.cpu0.workload.drivers: ioctl: AMDKFD_IOC_DESTROY_EVENT
94194860500: system.cpu0.workload.drivers: amdkfd destroying event 477
94197276000: system.cpu0.workload.drivers: ioctl: AMDKFD_IOC_DESTROY_EVENT
94197276000: system.cpu0.workload.drivers: amdkfd destroying event 478
94199591500: system.cpu0.workload.drivers: ioctl: AMDKFD_IOC_DESTROY_EVENT
94199591500: system.cpu0.workload.drivers: amdkfd destroying event 479
94202241000: system.cpu0.workload.drivers: ioctl: AMDKFD_IOC_DESTROY_EVENT
94202241000: system.cpu0.workload.drivers: amdkfd destroying event 480
94204529500: system.cpu0.workload.drivers: ioctl: AMDKFD_IOC_DESTROY_EVENT
94204529500: system.cpu0.workload.drivers: amdkfd destroying event 481
94206941000: system.cpu0.workload.drivers: ioctl: AMDKFD_IOC_DESTROY_EVENT
94206941000: system.cpu0.workload.drivers: amdkfd destroying event 482
94209448500: system.cpu0.workload.drivers: ioctl: AMDKFD_IOC_DESTROY_EVENT
94209448500: system.cpu0.workload.drivers: amdkfd destroying event 483
94212205500: system.cpu0.workload.drivers: ioctl: AMDKFD_IOC_DESTROY_EVENT
94212205500: system.cpu0.workload.drivers: amdkfd destroying event 484
94215055500: system.cpu0.workload.drivers: ioctl: AMDKFD_IOC_DESTROY_EVENT
94215055500: system.cpu0.workload.drivers: amdkfd destroying event 485
94217400000: system.cpu0.workload.drivers: ioctl: AMDKFD_IOC_DESTROY_EVENT
94217400000: system.cpu0.workload.drivers: amdkfd destroying event 486
94219761500: system.cpu0.workload.drivers: ioctl: AMDKFD_IOC_DESTROY_EVENT
94219761500: system.cpu0.workload.drivers: amdkfd destroying event 487
94222262000: system.cpu0.workload.drivers: ioctl: AMDKFD_IOC_DESTROY_EVENT
94222262000: system.cpu0.workload.drivers: amdkfd destroying event 488
94224495000: system.cpu0.workload.drivers: ioctl: AMDKFD_IOC_DESTROY_EVENT
94224495000: system.cpu0.workload.drivers: amdkfd destroying event 489
94226787000: system.cpu0.workload.drivers: ioctl: AMDKFD_IOC_DESTROY_EVENT
94226787000: system.cpu0.workload.drivers: amdkfd destroying event 490
94229234000: system.cpu0.workload.drivers: ioctl: AMDKFD_IOC_DESTROY_EVENT
94229234000: system.cpu0.workload.drivers: amdkfd destroying event 491
94232994500: system.cpu0.workload.drivers: ioctl: AMDKFD_IOC_DESTROY_EVENT
94232994500: system.cpu0.workload.drivers: amdkfd destroying event 492
94235382500: system.cpu0.workload.drivers: ioctl: AMDKFD_IOC_DESTROY_EVENT
94235382500: system.cpu0.workload.drivers: amdkfd destroying event 493
94237724000: system.cpu0.workload.drivers: ioctl: AMDKFD_IOC_DESTROY_EVENT
94237724000: system.cpu0.workload.drivers: amdkfd destroying event 494
94240074000: system.cpu0.workload.drivers: ioctl: AMDKFD_IOC_DESTROY_EVENT
94240074000: system.cpu0.workload.drivers: amdkfd destroying event 495
94242757500: system.cpu0.workload.drivers: ioctl: AMDKFD_IOC_DESTROY_EVENT
94242757500: system.cpu0.workload.drivers: amdkfd destroying event 496
94245000000: system.cpu0.workload.drivers: ioctl: AMDKFD_IOC_DESTROY_EVENT
94245000000: system.cpu0.workload.drivers: amdkfd destroying event 497
94247416000: system.cpu0.workload.drivers: ioctl: AMDKFD_IOC_DESTROY_EVENT
94247416000: system.cpu0.workload.drivers: amdkfd destroying event 498
94249849500: system.cpu0.workload.drivers: ioctl: AMDKFD_IOC_DESTROY_EVENT
94249849500: system.cpu0.workload.drivers: amdkfd destroying event 499
94252881000: system.cpu0.workload.drivers: ioctl: AMDKFD_IOC_DESTROY_EVENT
94252881000: system.cpu0.workload.drivers: amdkfd destroying event 500
94255104500: system.cpu0.workload.drivers: ioctl: AMDKFD_IOC_DESTROY_EVENT
94255104500: system.cpu0.workload.drivers: amdkfd destroying event 501
94257411000: system.cpu0.workload.drivers: ioctl: AMDKFD_IOC_DESTROY_EVENT
94257411000: system.cpu0.workload.drivers: amdkfd destroying event 502
94259607500: system.cpu0.workload.drivers: ioctl: AMDKFD_IOC_DESTROY_EVENT
94259607500: system.cpu0.workload.drivers: amdkfd destroying event 503
94262168500: system.cpu0.workload.drivers: ioctl: AMDKFD_IOC_DESTROY_EVENT
94262168500: system.cpu0.workload.drivers: amdkfd destroying event 504
94264466500: system.cpu0.workload.drivers: ioctl: AMDKFD_IOC_DESTROY_EVENT
94264466500: system.cpu0.workload.drivers: amdkfd destroying event 505
94266847500: system.cpu0.workload.drivers: ioctl: AMDKFD_IOC_DESTROY_EVENT
94266847500: system.cpu0.workload.drivers: amdkfd destroying event 506
94269137500: system.cpu0.workload.drivers: ioctl: AMDKFD_IOC_DESTROY_EVENT
94269137500: system.cpu0.workload.drivers: amdkfd destroying event 507
94271903500: system.cpu0.workload.drivers: ioctl: AMDKFD_IOC_DESTROY_EVENT
94271903500: system.cpu0.workload.drivers: amdkfd destroying event 508
94274194500: system.cpu0.workload.drivers: ioctl: AMDKFD_IOC_DESTROY_EVENT
94274194500: system.cpu0.workload.drivers: amdkfd destroying event 509
94276559500: system.cpu0.workload.drivers: ioctl: AMDKFD_IOC_DESTROY_EVENT
94276559500: system.cpu0.workload.drivers: amdkfd destroying event 510
94278773500: system.cpu0.workload.drivers: ioctl: AMDKFD_IOC_DESTROY_EVENT
94278773500: system.cpu0.workload.drivers: amdkfd destroying event 511
94281381000: system.cpu0.workload.drivers: ioctl: AMDKFD_IOC_DESTROY_EVENT
94281381000: system.cpu0.workload.drivers: amdkfd destroying event 512
94283714000: system.cpu0.workload.drivers: ioctl: AMDKFD_IOC_DESTROY_EVENT
94283714000: system.cpu0.workload.drivers: amdkfd destroying event 513
94285966500: system.cpu0.workload.drivers: ioctl: AMDKFD_IOC_DESTROY_EVENT
94285966500: system.cpu0.workload.drivers: amdkfd destroying event 514
94288324000: system.cpu0.workload.drivers: ioctl: AMDKFD_IOC_DESTROY_EVENT
94288324000: system.cpu0.workload.drivers: amdkfd destroying event 515
94291179000: system.cpu0.workload.drivers: ioctl: AMDKFD_IOC_DESTROY_EVENT
94291179000: system.cpu0.workload.drivers: amdkfd destroying event 516
94293338500: system.cpu0.workload.drivers: ioctl: AMDKFD_IOC_DESTROY_EVENT
94293338500: system.cpu0.workload.drivers: amdkfd destroying event 517
94295554000: system.cpu0.workload.drivers: ioctl: AMDKFD_IOC_DESTROY_EVENT
94295554000: system.cpu0.workload.drivers: amdkfd destroying event 518
94297787000: system.cpu0.workload.drivers: ioctl: AMDKFD_IOC_DESTROY_EVENT
94297787000: system.cpu0.workload.drivers: amdkfd destroying event 519
94300505500: system.cpu0.workload.drivers: ioctl: AMDKFD_IOC_DESTROY_EVENT
94300505500: system.cpu0.workload.drivers: amdkfd destroying event 520
94302628000: system.cpu0.workload.drivers: ioctl: AMDKFD_IOC_DESTROY_EVENT
94302628000: system.cpu0.workload.drivers: amdkfd destroying event 521
94304846000: system.cpu0.workload.drivers: ioctl: AMDKFD_IOC_DESTROY_EVENT
94304846000: system.cpu0.workload.drivers: amdkfd destroying event 522
94306942500: system.cpu0.workload.drivers: ioctl: AMDKFD_IOC_DESTROY_EVENT
94306942500: system.cpu0.workload.drivers: amdkfd destroying event 523
94309310000: system.cpu0.workload.drivers: ioctl: AMDKFD_IOC_DESTROY_EVENT
94309310000: system.cpu0.workload.drivers: amdkfd destroying event 524
94349051000: system.cpu0.workload.drivers: ioctl: AMDKFD_IOC_SET_EVENTS
94349051000: system.cpu0.workload.drivers: amdkfd set event 1
94349051000: system.cpu0.workload.drivers: Signal event: Waking up CPU 1
warn: ignoring syscall madvise(...)
94372563000: system.cpu0.workload.drivers: ioctl: AMDKFD_IOC_DESTROY_EVENT
94372563000: system.cpu0.workload.drivers: amdkfd destroying event 1
94387548500: system.cpu0.workload.drivers: ioctl: AMDKFD_IOC_DESTROY_EVENT
94387548500: system.cpu0.workload.drivers: amdkfd destroying event 3
94395709000: system.cpu0.workload.drivers: ioctl: AMDKFD_IOC_DESTROY_EVENT
94395709000: system.cpu0.workload.drivers: amdkfd destroying event 4
94403085500: system.cpu0.workload.drivers: ioctl: AMDKFD_IOC_DESTROY_EVENT
94403085500: system.cpu0.workload.drivers: amdkfd destroying event 2
94409569000: system.cpu0.workload.drivers: ioctl: AMDKFD_IOC_DESTROY_QUEUE;queue offset 0
94409569000: global: Trying to map next queue, @ contextSwitchQ94422753500: system.cpu0.workload.drivers: ioctl: AMDKFD_IOC_DESTROY_QUEUE;queue offset 1
94422753500: global: Trying to map next queue, @ contextSwitchQTicks: 94573408000
Exiting because  exiting with last active thread context
