warn: system.ruby.network adopting orphan SimObject param 'int_links'
warn: system.ruby.network adopting orphan SimObject param 'ext_links'
gem5 Simulator System.  http://gem5.org
gem5 is copyrighted software; use the --copyright option for details.

gem5 compiled Apr  8 2020 14:26:36
gem5 started Apr  8 2020 14:31:05
gem5 executing on impa, pid 23426
command line: build/GCN3_X86/gem5.opt --debug-flags=HSAPacketProcessor,HSADriver,GPUDriver configs/example/apu_se_mod.py -n2 --benchmark-root=/u/b/w/bwyogatama/Research/Scheduling/gem5_clean/gem5/histogram -c histogram.out

Num SQC =  1 Num scalar caches =  1 Num CU =  4
Num GPUs =  1
TCC_bits = 0
Num Dirs = 1
<orphan System>.ruby.cp_cntrl0
<orphan System>.ruby.tcp_cntrl0
<orphan System>.ruby.tcp_cntrl1
<orphan System>.ruby.tcp_cntrl2
<orphan System>.ruby.tcp_cntrl3
<orphan System>.ruby.sqc_cntrl0
<orphan System>.ruby.scalar_cntrl0
<orphan System>.ruby.tcc_cntrl0
<orphan System>.dma_cntrl0
<orphan System>.dma_cntrl1
Global frequency set at 1000000000000 ticks per second
warn: DRAM device capacity (8192 Mbytes) does not match the address range assigned (512 Mbytes)
      0: system.cpu2.gpu_cmd_proc.hsapp: HSAPacketProcessor:
      0: system.cpu0.workload.drivers: Constructing KFD: device
Forcing maxCoalescedReqs to 32 (TLB assoc.) 
Forcing maxCoalescedReqs to 32 (TLB assoc.) 
Forcing maxCoalescedReqs to 32 (TLB assoc.) 
Forcing maxCoalescedReqs to 32 (TLB assoc.) 
Forcing maxCoalescedReqs to 32 (TLB assoc.) 
Forcing maxCoalescedReqs to 32 (TLB assoc.) 
Forcing maxCoalescedReqs to 32 (TLB assoc.) 
Forcing maxCoalescedReqs to 32 (TLB assoc.) 
0: system.remote_gdb: listening for remote gdb on port 7000
0: system.remote_gdb: listening for remote gdb on port 7001
info: Entering event queue @ 0.  Starting simulation...
warn: Replacement policy updates recently became the responsibility of SLICC state machines. Make sure to setMRU() near callbacks in .sm files!
warn: x86 cpuid family 0x0000: unimplemented function 7
warn: ignoring syscall access(...)
warn: ignoring syscall access(...)
warn: ignoring syscall mprotect(...)
warn: ignoring syscall access(...)
warn: ignoring syscall mprotect(...)
warn: ignoring syscall access(...)
warn: ignoring syscall mprotect(...)
warn: ignoring syscall access(...)
warn: ignoring syscall mprotect(...)
warn: ignoring syscall mprotect(...)
warn: ignoring syscall mprotect(...)
warn: ignoring syscall mprotect(...)
warn: ignoring syscall mprotect(...)
warn: ignoring syscall mprotect(...)
warn: ignoring syscall access(...)
warn: ignoring syscall mprotect(...)
warn: ignoring syscall access(...)
warn: ignoring syscall mprotect(...)
warn: ignoring syscall access(...)
warn: ignoring syscall mprotect(...)
warn: ignoring syscall mprotect(...)
warn: ignoring syscall access(...)
warn: ignoring syscall mprotect(...)
warn: ignoring syscall access(...)
warn: ignoring syscall mprotect(...)
warn: ignoring syscall access(...)
warn: ignoring syscall mprotect(...)
warn: ignoring syscall access(...)
warn: ignoring syscall mprotect(...)
warn: ignoring syscall access(...)
warn: ignoring syscall mprotect(...)
warn: ignoring syscall mprotect(...)
warn: ignoring syscall mprotect(...)
warn: ignoring syscall mprotect(...)
warn: ignoring syscall mprotect(...)
warn: ignoring syscall mprotect(...)
warn: ignoring syscall mprotect(...)
warn: ignoring syscall mprotect(...)
warn: ignoring syscall mprotect(...)
warn: ignoring syscall mprotect(...)
warn: ignoring syscall mprotect(...)
warn: ignoring syscall mprotect(...)
warn: ignoring syscall mprotect(...)
warn: ignoring syscall mprotect(...)
warn: ignoring syscall mprotect(...)
warn: ignoring syscall mprotect(...)
warn: ignoring syscall mprotect(...)
warn: ignoring syscall mprotect(...)
warn: ignoring syscall mprotect(...)
warn: ignoring syscall set_robust_list(...)
warn: ignoring syscall rt_sigaction(...)
      (further warnings will be suppressed)
warn: ignoring syscall rt_sigprocmask(...)
      (further warnings will be suppressed)
warn: ignoring syscall mprotect(...)
warn: ignoring syscall mprotect(...)
17250241500: system.cpu0.workload.drivers: Opened kfd
warn: ignoring syscall access(...)
17469119500: system.cpu0.workload.drivers: ioctl: AMDKFD_IOC_GET_PROCESS_APERTURES_NEW
ioc_args->num_of_nodes: 1
warn: fcntl: unsupported command 6
warn: fcntl: unsupported command 6
17489290000: system.cpu0.workload.drivers: ioctl: AMDKFD_IOC_GET_VERSION
Failed to get Processor Vendor. Setting to GenuineIntel
warn: ignoring syscall sched_getaffinity(...)
warn: ignoring syscall sched_setaffinity(...)
warn: x86 cpuid family 0x0000: unimplemented function 4 returning 0x0, 0x0, 0x0, 0x0.
warn: ignoring syscall sched_setaffinity(...)
warn: x86 cpuid family 0x0000: unimplemented function 4 returning 0x0, 0x0, 0x0, 0x0.
warn: ignoring syscall sched_setaffinity(...)
warn: ignoring syscall access(...)
17653476000: system.cpu0.workload.drivers: ioctl: AMDKFD_IOC_GET_CLOCK_COUNTERS
17658460500: system.cpu0.workload.drivers: ioctl: AMDKFD_IOC_GET_CLOCK_COUNTERS
warn: ignoring syscall mprotect(...)
warn: ignoring syscall mprotect(...)
warn: ignoring syscall mprotect(...)
warn: ignoring syscall mprotect(...)
warn: unimplemented ioctl: AMDKFD_IOC_ALLOC_MEMORY_OF_SCRATCH
warn: mmap: writing to shared mmap region is currently unsupported. The write succeeds on the target, but it will not be propagated to the host or shared mappings
warn: mmap: writing to shared mmap region is currently unsupported. The write succeeds on the target, but it will not be propagated to the host or shared mappings
warn: ignoring syscall mprotect(...)
warn: ignoring syscall mprotect(...)
warn: ignoring syscall mprotect(...)
34523036000: system.cpu0.workload.drivers: ioctl: AMDKFD_IOC_CREATE_QUEUE
GPU ID: 2765
args->doorbell_offset1: 0xc2b3400000000
args->doorbell_offset2: 0xc2b3400000000000
34523036000: system.cpu2.gpu_cmd_proc.hsapp: setDeviceQueueDesc:base = 0x7ffef42dc000, qID = 0, ze = 524288
34523036000: global: Trying to map new queue, @ mapQIfSlotAvlbl
34523036000: global: Trying to find empty HW queue, @ findEmptyHWQ
34523036000: global: Mapped HSA queue 0 to hw queue 0: @ addQCntxt
34523036000: system.cpu2.gpu_cmd_proc.hsapp: getCommandsFromHost: read-pointer offset[0x0], write-pointer offset[0x0] doorbell(0)[0x0] 
34523036000: global: registerNewQueue: offset = 0, qID = 0, is_regd = true, AL size 1
34523036000: system.cpu0.workload.drivers: Creating queue 1
warn: mmap: writing to shared mmap region is currently unsupported. The write succeeds on the target, but it will not be propagated to the host or shared mappings
34528223500: system.cpu0.workload.drivers: amdkfd doorbell mmap (start: 0, length: 0x1000,offset: 0x0)
vm_pgoff: 0xc2b3400000000
offset: 0x0
GPU ID: 0xacd
34528223500: system.cpu0.workload.drivers: amdkfd doorbell mapped to 7ffef4037000p
34559289000: system.cpu0.workload.drivers: ioctl: AMDKFD_IOC_CREATE_EVENT
34559289000: system.cpu0.workload.drivers: amdkfd create events(event_id: 0x0, offset: 0x8000000000000000)
warn: mmap: writing to shared mmap region is currently unsupported. The write succeeds on the target, but it will not be propagated to the host or shared mappings
34559680500: system.cpu0.workload.drivers: amdkfd mmap for events(start: 0, length: 0x9000,offset: 0x8000000000000000,  )
34588815500: system.cpu0.workload.drivers: ioctl: AMDKFD_IOC_CREATE_EVENT
34588815500: system.cpu0.workload.drivers: amdkfd create events(event_id: 0x1, offset: 0x8000000000000000)
warn: mmap: writing to shared mmap region is currently unsupported. The write succeeds on the target, but it will not be propagated to the host or shared mappings
34588874500: system.cpu0.workload.drivers: amdkfd mmap for events(start: 0, length: 0x9000,offset: 0x8000000000000000,  )
warn: ignoring syscall mprotect(...)
warn: ClockedObject: Already in the requested power state, request ignored
warn: ignoring syscall set_robust_list(...)
warn: ignoring syscall mprotect(...)
34659407000: system.cpu0.workload.drivers: ioctl: AMDKFD_IOC_CREATE_EVENT
34659407000: system.cpu0.workload.drivers: amdkfd create events(event_id: 0x2, offset: 0x8000000000000000)
warn: mmap: writing to shared mmap region is currently unsupported. The write succeeds on the target, but it will not be propagated to the host or shared mappings
34659484000: system.cpu0.workload.drivers: amdkfd mmap for events(start: 0, length: 0x9000,offset: 0x8000000000000000,  )
warn: ignoring syscall mprotect(...)
warn: ignoring syscall mprotect(...)
warn: ignoring syscall mprotect(...)
warn: ignoring syscall mprotect(...)
34876369500: system.cpu0.workload.drivers: ioctl: AMDKFD_IOC_WAIT_EVENTS
34876369500: system.cpu0.workload.drivers: amdkfd wait for events(wait on all: 0, timeout : 4294967294, num_events: 2)
34876369500: system.cpu0.workload.drivers: 	amdkfd creating event list for thread  1
34876369500: system.cpu0.workload.drivers: 	amdkfd wait for event 0
34876369500: system.cpu0.workload.drivers: 	amdkfd wait for event 1
34876369500: system.cpu0.workload.drivers: CPU 1 is put to sleep
warn: mmap: writing to shared mmap region is currently unsupported. The write succeeds on the target, but it will not be propagated to the host or shared mappings
warn: mmap: writing to shared mmap region is currently unsupported. The write succeeds on the target, but it will not be propagated to the host or shared mappings
warn: ignoring syscall mprotect(...)
warn: ignoring syscall mprotect(...)
warn: ignoring syscall mprotect(...)
41511081500: system.cpu0.workload.drivers: ioctl: AMDKFD_IOC_CREATE_QUEUE
GPU ID: 2765
args->doorbell_offset1: 0xc2b3400000000
args->doorbell_offset2: 0xc2b3400000000000
41511081500: system.cpu2.gpu_cmd_proc.hsapp: setDeviceQueueDesc:base = 0x7ffeeb754000, qID = 1, ze = 524288
41511081500: global: Trying to map new queue, @ mapQIfSlotAvlbl
41511081500: global: Trying to find empty HW queue, @ findEmptyHWQ
41511081500: global: Mapped HSA queue 1 to hw queue 1: @ addQCntxt
41511081500: system.cpu2.gpu_cmd_proc.hsapp: getCommandsFromHost: read-pointer offset[0x0], write-pointer offset[0x0] doorbell(0)[0x4] 
41511081500: global: registerNewQueue: offset = 0x4, qID = 1, is_regd = true, AL size 2
41511081500: system.cpu0.workload.drivers: Creating queue 2
41566991000: system.cpu0.workload.drivers: ioctl: AMDKFD_IOC_SET_EVENTS
41566991000: system.cpu0.workload.drivers: amdkfd set event 1
41566991000: system.cpu0.workload.drivers: Signal event: Waking up CPU 1
warn: ignoring syscall mprotect(...)
41582593000: system.cpu0.workload.drivers: ioctl: AMDKFD_IOC_CREATE_EVENT
41582593000: system.cpu0.workload.drivers: amdkfd create events(event_id: 0x3, offset: 0x8000000000000000)
warn: mmap: writing to shared mmap region is currently unsupported. The write succeeds on the target, but it will not be propagated to the host or shared mappings
41583334500: system.cpu0.workload.drivers: amdkfd mmap for events(start: 0, length: 0x9000,offset: 0x8000000000000000,  )
warn: ignoring syscall mprotect(...)
warn: ignoring syscall mprotect(...)
warn: ignoring syscall mprotect(...)
41669838000: system.cpu0.workload.drivers: ioctl: AMDKFD_IOC_CREATE_EVENT
41669838000: system.cpu0.workload.drivers: amdkfd create events(event_id: 0x4, offset: 0x8000000000000000)
warn: mmap: writing to shared mmap region is currently unsupported. The write succeeds on the target, but it will not be propagated to the host or shared mappings
41669906000: system.cpu0.workload.drivers: amdkfd mmap for events(start: 0, length: 0x9000,offset: 0x8000000000000000,  )
warn: ignoring syscall mprotect(...)
warn: ignoring syscall mprotect(...)
warn: ignoring syscall mprotect(...)
41783331500: system.cpu0.workload.drivers: ioctl: AMDKFD_IOC_WAIT_EVENTS
41783331500: system.cpu0.workload.drivers: amdkfd wait for events(wait on all: 0, timeout : 4294967294, num_events: 2)
41783331500: system.cpu0.workload.drivers: 	amdkfd wait for event 0
41783331500: system.cpu0.workload.drivers: 	amdkfd wait for event 1
41783915000: system.cpu0.workload.drivers: ioctl: AMDKFD_IOC_WAIT_EVENTS
41783915000: system.cpu0.workload.drivers: amdkfd wait for events(wait on all: 0, timeout : 4294967294, num_events: 2)
41783915000: system.cpu0.workload.drivers: 	amdkfd wait for event 0
41783915000: system.cpu0.workload.drivers: 	amdkfd wait for event 1
41783915000: system.cpu0.workload.drivers: CPU 1 is put to sleep
45969652000: system.cpu0.workload.drivers: ioctl: AMDKFD_IOC_CREATE_EVENT
45969652000: system.cpu0.workload.drivers: amdkfd create events(event_id: 0x5, offset: 0x8000000000000000)
warn: mmap: writing to shared mmap region is currently unsupported. The write succeeds on the target, but it will not be propagated to the host or shared mappings
45969837500: system.cpu0.workload.drivers: amdkfd mmap for events(start: 0, length: 0x9000,offset: 0x8000000000000000,  )
45973526000: system.cpu0.workload.drivers: ioctl: AMDKFD_IOC_CREATE_EVENT
45973526000: system.cpu0.workload.drivers: amdkfd create events(event_id: 0x6, offset: 0x8000000000000000)
warn: mmap: writing to shared mmap region is currently unsupported. The write succeeds on the target, but it will not be propagated to the host or shared mappings
45973585000: system.cpu0.workload.drivers: amdkfd mmap for events(start: 0, length: 0x9000,offset: 0x8000000000000000,  )
45986397000: system.cpu0.workload.drivers: ioctl: AMDKFD_IOC_CREATE_EVENT
45986397000: system.cpu0.workload.drivers: amdkfd create events(event_id: 0x7, offset: 0x8000000000000000)
warn: mmap: writing to shared mmap region is currently unsupported. The write succeeds on the target, but it will not be propagated to the host or shared mappings
45986465000: system.cpu0.workload.drivers: amdkfd mmap for events(start: 0, length: 0x9000,offset: 0x8000000000000000,  )
45990760500: system.cpu0.workload.drivers: ioctl: AMDKFD_IOC_CREATE_EVENT
45990760500: system.cpu0.workload.drivers: amdkfd create events(event_id: 0x8, offset: 0x8000000000000000)
warn: mmap: writing to shared mmap region is currently unsupported. The write succeeds on the target, but it will not be propagated to the host or shared mappings
45990819500: system.cpu0.workload.drivers: amdkfd mmap for events(start: 0, length: 0x9000,offset: 0x8000000000000000,  )
46006136500: system.cpu0.workload.drivers: ioctl: AMDKFD_IOC_CREATE_EVENT
46006136500: system.cpu0.workload.drivers: amdkfd create events(event_id: 0x9, offset: 0x8000000000000000)
warn: mmap: writing to shared mmap region is currently unsupported. The write succeeds on the target, but it will not be propagated to the host or shared mappings
46006222500: system.cpu0.workload.drivers: amdkfd mmap for events(start: 0, length: 0x9000,offset: 0x8000000000000000,  )
46010426000: system.cpu0.workload.drivers: ioctl: AMDKFD_IOC_CREATE_EVENT
46010426000: system.cpu0.workload.drivers: amdkfd create events(event_id: 0xa, offset: 0x8000000000000000)
warn: mmap: writing to shared mmap region is currently unsupported. The write succeeds on the target, but it will not be propagated to the host or shared mappings
46010485000: system.cpu0.workload.drivers: amdkfd mmap for events(start: 0, length: 0x9000,offset: 0x8000000000000000,  )
46022606500: system.cpu0.workload.drivers: ioctl: AMDKFD_IOC_CREATE_EVENT
46022606500: system.cpu0.workload.drivers: amdkfd create events(event_id: 0xb, offset: 0x8000000000000000)
warn: mmap: writing to shared mmap region is currently unsupported. The write succeeds on the target, but it will not be propagated to the host or shared mappings
46022674500: system.cpu0.workload.drivers: amdkfd mmap for events(start: 0, length: 0x9000,offset: 0x8000000000000000,  )
46026966000: system.cpu0.workload.drivers: ioctl: AMDKFD_IOC_CREATE_EVENT
46026966000: system.cpu0.workload.drivers: amdkfd create events(event_id: 0xc, offset: 0x8000000000000000)
warn: mmap: writing to shared mmap region is currently unsupported. The write succeeds on the target, but it will not be propagated to the host or shared mappings
46027025000: system.cpu0.workload.drivers: amdkfd mmap for events(start: 0, length: 0x9000,offset: 0x8000000000000000,  )
46044323500: system.cpu0.workload.drivers: ioctl: AMDKFD_IOC_CREATE_EVENT
46044323500: system.cpu0.workload.drivers: amdkfd create events(event_id: 0xd, offset: 0x8000000000000000)
warn: mmap: writing to shared mmap region is currently unsupported. The write succeeds on the target, but it will not be propagated to the host or shared mappings
46044400500: system.cpu0.workload.drivers: amdkfd mmap for events(start: 0, length: 0x9000,offset: 0x8000000000000000,  )
46049954000: system.cpu0.workload.drivers: ioctl: AMDKFD_IOC_CREATE_EVENT
46049954000: system.cpu0.workload.drivers: amdkfd create events(event_id: 0xe, offset: 0x8000000000000000)
warn: mmap: writing to shared mmap region is currently unsupported. The write succeeds on the target, but it will not be propagated to the host or shared mappings
46050013000: system.cpu0.workload.drivers: amdkfd mmap for events(start: 0, length: 0x9000,offset: 0x8000000000000000,  )
46054772000: system.cpu0.workload.drivers: ioctl: AMDKFD_IOC_CREATE_EVENT
46054772000: system.cpu0.workload.drivers: amdkfd create events(event_id: 0xf, offset: 0x8000000000000000)
warn: mmap: writing to shared mmap region is currently unsupported. The write succeeds on the target, but it will not be propagated to the host or shared mappings
46054831000: system.cpu0.workload.drivers: amdkfd mmap for events(start: 0, length: 0x9000,offset: 0x8000000000000000,  )
46059716000: system.cpu0.workload.drivers: ioctl: AMDKFD_IOC_CREATE_EVENT
46059716000: system.cpu0.workload.drivers: amdkfd create events(event_id: 0x10, offset: 0x8000000000000000)
warn: mmap: writing to shared mmap region is currently unsupported. The write succeeds on the target, but it will not be propagated to the host or shared mappings
46059775000: system.cpu0.workload.drivers: amdkfd mmap for events(start: 0, length: 0x9000,offset: 0x8000000000000000,  )
46064023000: system.cpu0.workload.drivers: ioctl: AMDKFD_IOC_CREATE_EVENT
46064023000: system.cpu0.workload.drivers: amdkfd create events(event_id: 0x11, offset: 0x8000000000000000)
warn: mmap: writing to shared mmap region is currently unsupported. The write succeeds on the target, but it will not be propagated to the host or shared mappings
46064082000: system.cpu0.workload.drivers: amdkfd mmap for events(start: 0, length: 0x9000,offset: 0x8000000000000000,  )
46069542500: system.cpu0.workload.drivers: ioctl: AMDKFD_IOC_CREATE_EVENT
46069542500: system.cpu0.workload.drivers: amdkfd create events(event_id: 0x12, offset: 0x8000000000000000)
warn: mmap: writing to shared mmap region is currently unsupported. The write succeeds on the target, but it will not be propagated to the host or shared mappings
46069601500: system.cpu0.workload.drivers: amdkfd mmap for events(start: 0, length: 0x9000,offset: 0x8000000000000000,  )
46073746500: system.cpu0.workload.drivers: ioctl: AMDKFD_IOC_CREATE_EVENT
46073746500: system.cpu0.workload.drivers: amdkfd create events(event_id: 0x13, offset: 0x8000000000000000)
warn: mmap: writing to shared mmap region is currently unsupported. The write succeeds on the target, but it will not be propagated to the host or shared mappings
46073805500: system.cpu0.workload.drivers: amdkfd mmap for events(start: 0, length: 0x9000,offset: 0x8000000000000000,  )
46078134000: system.cpu0.workload.drivers: ioctl: AMDKFD_IOC_CREATE_EVENT
46078134000: system.cpu0.workload.drivers: amdkfd create events(event_id: 0x14, offset: 0x8000000000000000)
warn: mmap: writing to shared mmap region is currently unsupported. The write succeeds on the target, but it will not be propagated to the host or shared mappings
46078193000: system.cpu0.workload.drivers: amdkfd mmap for events(start: 0, length: 0x9000,offset: 0x8000000000000000,  )
46082321000: system.cpu0.workload.drivers: ioctl: AMDKFD_IOC_CREATE_EVENT
46082321000: system.cpu0.workload.drivers: amdkfd create events(event_id: 0x15, offset: 0x8000000000000000)
warn: mmap: writing to shared mmap region is currently unsupported. The write succeeds on the target, but it will not be propagated to the host or shared mappings
46082380000: system.cpu0.workload.drivers: amdkfd mmap for events(start: 0, length: 0x9000,offset: 0x8000000000000000,  )
46088303500: system.cpu0.workload.drivers: ioctl: AMDKFD_IOC_CREATE_EVENT
46088303500: system.cpu0.workload.drivers: amdkfd create events(event_id: 0x16, offset: 0x8000000000000000)
warn: mmap: writing to shared mmap region is currently unsupported. The write succeeds on the target, but it will not be propagated to the host or shared mappings
46088362500: system.cpu0.workload.drivers: amdkfd mmap for events(start: 0, length: 0x9000,offset: 0x8000000000000000,  )
46092524000: system.cpu0.workload.drivers: ioctl: AMDKFD_IOC_CREATE_EVENT
46092524000: system.cpu0.workload.drivers: amdkfd create events(event_id: 0x17, offset: 0x8000000000000000)
warn: mmap: writing to shared mmap region is currently unsupported. The write succeeds on the target, but it will not be propagated to the host or shared mappings
46092583000: system.cpu0.workload.drivers: amdkfd mmap for events(start: 0, length: 0x9000,offset: 0x8000000000000000,  )
46096827000: system.cpu0.workload.drivers: ioctl: AMDKFD_IOC_CREATE_EVENT
46096827000: system.cpu0.workload.drivers: amdkfd create events(event_id: 0x18, offset: 0x8000000000000000)
warn: mmap: writing to shared mmap region is currently unsupported. The write succeeds on the target, but it will not be propagated to the host or shared mappings
46096886000: system.cpu0.workload.drivers: amdkfd mmap for events(start: 0, length: 0x9000,offset: 0x8000000000000000,  )
46101047500: system.cpu0.workload.drivers: ioctl: AMDKFD_IOC_CREATE_EVENT
46101047500: system.cpu0.workload.drivers: amdkfd create events(event_id: 0x19, offset: 0x8000000000000000)
warn: mmap: writing to shared mmap region is currently unsupported. The write succeeds on the target, but it will not be propagated to the host or shared mappings
46101106500: system.cpu0.workload.drivers: amdkfd mmap for events(start: 0, length: 0x9000,offset: 0x8000000000000000,  )
46105516500: system.cpu0.workload.drivers: ioctl: AMDKFD_IOC_CREATE_EVENT
46105516500: system.cpu0.workload.drivers: amdkfd create events(event_id: 0x1a, offset: 0x8000000000000000)
warn: mmap: writing to shared mmap region is currently unsupported. The write succeeds on the target, but it will not be propagated to the host or shared mappings
46105575500: system.cpu0.workload.drivers: amdkfd mmap for events(start: 0, length: 0x9000,offset: 0x8000000000000000,  )
46109877000: system.cpu0.workload.drivers: ioctl: AMDKFD_IOC_CREATE_EVENT
46109877000: system.cpu0.workload.drivers: amdkfd create events(event_id: 0x1b, offset: 0x8000000000000000)
warn: mmap: writing to shared mmap region is currently unsupported. The write succeeds on the target, but it will not be propagated to the host or shared mappings
46109945000: system.cpu0.workload.drivers: amdkfd mmap for events(start: 0, length: 0x9000,offset: 0x8000000000000000,  )
46114157500: system.cpu0.workload.drivers: ioctl: AMDKFD_IOC_CREATE_EVENT
46114157500: system.cpu0.workload.drivers: amdkfd create events(event_id: 0x1c, offset: 0x8000000000000000)
warn: mmap: writing to shared mmap region is currently unsupported. The write succeeds on the target, but it will not be propagated to the host or shared mappings
46114216500: system.cpu0.workload.drivers: amdkfd mmap for events(start: 0, length: 0x9000,offset: 0x8000000000000000,  )
46118540500: system.cpu0.workload.drivers: ioctl: AMDKFD_IOC_CREATE_EVENT
46118540500: system.cpu0.workload.drivers: amdkfd create events(event_id: 0x1d, offset: 0x8000000000000000)
warn: mmap: writing to shared mmap region is currently unsupported. The write succeeds on the target, but it will not be propagated to the host or shared mappings
46118599500: system.cpu0.workload.drivers: amdkfd mmap for events(start: 0, length: 0x9000,offset: 0x8000000000000000,  )
46124071000: system.cpu0.workload.drivers: ioctl: AMDKFD_IOC_CREATE_EVENT
46124071000: system.cpu0.workload.drivers: amdkfd create events(event_id: 0x1e, offset: 0x8000000000000000)
warn: mmap: writing to shared mmap region is currently unsupported. The write succeeds on the target, but it will not be propagated to the host or shared mappings
46124130000: system.cpu0.workload.drivers: amdkfd mmap for events(start: 0, length: 0x9000,offset: 0x8000000000000000,  )
46128991000: system.cpu0.workload.drivers: ioctl: AMDKFD_IOC_CREATE_EVENT
46128991000: system.cpu0.workload.drivers: amdkfd create events(event_id: 0x1f, offset: 0x8000000000000000)
warn: mmap: writing to shared mmap region is currently unsupported. The write succeeds on the target, but it will not be propagated to the host or shared mappings
46129050000: system.cpu0.workload.drivers: amdkfd mmap for events(start: 0, length: 0x9000,offset: 0x8000000000000000,  )
46133626500: system.cpu0.workload.drivers: ioctl: AMDKFD_IOC_CREATE_EVENT
46133626500: system.cpu0.workload.drivers: amdkfd create events(event_id: 0x20, offset: 0x8000000000000000)
warn: mmap: writing to shared mmap region is currently unsupported. The write succeeds on the target, but it will not be propagated to the host or shared mappings
46133685500: system.cpu0.workload.drivers: amdkfd mmap for events(start: 0, length: 0x9000,offset: 0x8000000000000000,  )
46138024000: system.cpu0.workload.drivers: ioctl: AMDKFD_IOC_CREATE_EVENT
46138024000: system.cpu0.workload.drivers: amdkfd create events(event_id: 0x21, offset: 0x8000000000000000)
warn: mmap: writing to shared mmap region is currently unsupported. The write succeeds on the target, but it will not be propagated to the host or shared mappings
46138083000: system.cpu0.workload.drivers: amdkfd mmap for events(start: 0, length: 0x9000,offset: 0x8000000000000000,  )
46143125500: system.cpu0.workload.drivers: ioctl: AMDKFD_IOC_CREATE_EVENT
46143125500: system.cpu0.workload.drivers: amdkfd create events(event_id: 0x22, offset: 0x8000000000000000)
warn: mmap: writing to shared mmap region is currently unsupported. The write succeeds on the target, but it will not be propagated to the host or shared mappings
46143184500: system.cpu0.workload.drivers: amdkfd mmap for events(start: 0, length: 0x9000,offset: 0x8000000000000000,  )
46147523000: system.cpu0.workload.drivers: ioctl: AMDKFD_IOC_CREATE_EVENT
46147523000: system.cpu0.workload.drivers: amdkfd create events(event_id: 0x23, offset: 0x8000000000000000)
warn: mmap: writing to shared mmap region is currently unsupported. The write succeeds on the target, but it will not be propagated to the host or shared mappings
46147582000: system.cpu0.workload.drivers: amdkfd mmap for events(start: 0, length: 0x9000,offset: 0x8000000000000000,  )
46152401500: system.cpu0.workload.drivers: ioctl: AMDKFD_IOC_CREATE_EVENT
46152401500: system.cpu0.workload.drivers: amdkfd create events(event_id: 0x24, offset: 0x8000000000000000)
warn: mmap: writing to shared mmap region is currently unsupported. The write succeeds on the target, but it will not be propagated to the host or shared mappings
46152460500: system.cpu0.workload.drivers: amdkfd mmap for events(start: 0, length: 0x9000,offset: 0x8000000000000000,  )
46156892000: system.cpu0.workload.drivers: ioctl: AMDKFD_IOC_CREATE_EVENT
46156892000: system.cpu0.workload.drivers: amdkfd create events(event_id: 0x25, offset: 0x8000000000000000)
warn: mmap: writing to shared mmap region is currently unsupported. The write succeeds on the target, but it will not be propagated to the host or shared mappings
46156951000: system.cpu0.workload.drivers: amdkfd mmap for events(start: 0, length: 0x9000,offset: 0x8000000000000000,  )
46162441500: system.cpu0.workload.drivers: ioctl: AMDKFD_IOC_CREATE_EVENT
46162441500: system.cpu0.workload.drivers: amdkfd create events(event_id: 0x26, offset: 0x8000000000000000)
warn: mmap: writing to shared mmap region is currently unsupported. The write succeeds on the target, but it will not be propagated to the host or shared mappings
46162500500: system.cpu0.workload.drivers: amdkfd mmap for events(start: 0, length: 0x9000,offset: 0x8000000000000000,  )
46166773000: system.cpu0.workload.drivers: ioctl: AMDKFD_IOC_CREATE_EVENT
46166773000: system.cpu0.workload.drivers: amdkfd create events(event_id: 0x27, offset: 0x8000000000000000)
warn: mmap: writing to shared mmap region is currently unsupported. The write succeeds on the target, but it will not be propagated to the host or shared mappings
46166832000: system.cpu0.workload.drivers: amdkfd mmap for events(start: 0, length: 0x9000,offset: 0x8000000000000000,  )
46171622000: system.cpu0.workload.drivers: ioctl: AMDKFD_IOC_CREATE_EVENT
46171622000: system.cpu0.workload.drivers: amdkfd create events(event_id: 0x28, offset: 0x8000000000000000)
warn: mmap: writing to shared mmap region is currently unsupported. The write succeeds on the target, but it will not be propagated to the host or shared mappings
46171681000: system.cpu0.workload.drivers: amdkfd mmap for events(start: 0, length: 0x9000,offset: 0x8000000000000000,  )
46176019500: system.cpu0.workload.drivers: ioctl: AMDKFD_IOC_CREATE_EVENT
46176019500: system.cpu0.workload.drivers: amdkfd create events(event_id: 0x29, offset: 0x8000000000000000)
warn: mmap: writing to shared mmap region is currently unsupported. The write succeeds on the target, but it will not be propagated to the host or shared mappings
46176078500: system.cpu0.workload.drivers: amdkfd mmap for events(start: 0, length: 0x9000,offset: 0x8000000000000000,  )
46181109000: system.cpu0.workload.drivers: ioctl: AMDKFD_IOC_CREATE_EVENT
46181109000: system.cpu0.workload.drivers: amdkfd create events(event_id: 0x2a, offset: 0x8000000000000000)
warn: mmap: writing to shared mmap region is currently unsupported. The write succeeds on the target, but it will not be propagated to the host or shared mappings
46181168000: system.cpu0.workload.drivers: amdkfd mmap for events(start: 0, length: 0x9000,offset: 0x8000000000000000,  )
46185460000: system.cpu0.workload.drivers: ioctl: AMDKFD_IOC_CREATE_EVENT
46185460000: system.cpu0.workload.drivers: amdkfd create events(event_id: 0x2b, offset: 0x8000000000000000)
warn: mmap: writing to shared mmap region is currently unsupported. The write succeeds on the target, but it will not be propagated to the host or shared mappings
46185519000: system.cpu0.workload.drivers: amdkfd mmap for events(start: 0, length: 0x9000,offset: 0x8000000000000000,  )
46190191500: system.cpu0.workload.drivers: ioctl: AMDKFD_IOC_CREATE_EVENT
46190191500: system.cpu0.workload.drivers: amdkfd create events(event_id: 0x2c, offset: 0x8000000000000000)
warn: mmap: writing to shared mmap region is currently unsupported. The write succeeds on the target, but it will not be propagated to the host or shared mappings
46190259500: system.cpu0.workload.drivers: amdkfd mmap for events(start: 0, length: 0x9000,offset: 0x8000000000000000,  )
46194924500: system.cpu0.workload.drivers: ioctl: AMDKFD_IOC_CREATE_EVENT
46194924500: system.cpu0.workload.drivers: amdkfd create events(event_id: 0x2d, offset: 0x8000000000000000)
warn: mmap: writing to shared mmap region is currently unsupported. The write succeeds on the target, but it will not be propagated to the host or shared mappings
46194983500: system.cpu0.workload.drivers: amdkfd mmap for events(start: 0, length: 0x9000,offset: 0x8000000000000000,  )
46200179000: system.cpu0.workload.drivers: ioctl: AMDKFD_IOC_CREATE_EVENT
46200179000: system.cpu0.workload.drivers: amdkfd create events(event_id: 0x2e, offset: 0x8000000000000000)
warn: mmap: writing to shared mmap region is currently unsupported. The write succeeds on the target, but it will not be propagated to the host or shared mappings
46200238000: system.cpu0.workload.drivers: amdkfd mmap for events(start: 0, length: 0x9000,offset: 0x8000000000000000,  )
46204551500: system.cpu0.workload.drivers: ioctl: AMDKFD_IOC_CREATE_EVENT
46204551500: system.cpu0.workload.drivers: amdkfd create events(event_id: 0x2f, offset: 0x8000000000000000)
warn: mmap: writing to shared mmap region is currently unsupported. The write succeeds on the target, but it will not be propagated to the host or shared mappings
46204610500: system.cpu0.workload.drivers: amdkfd mmap for events(start: 0, length: 0x9000,offset: 0x8000000000000000,  )
46209263000: system.cpu0.workload.drivers: ioctl: AMDKFD_IOC_CREATE_EVENT
46209263000: system.cpu0.workload.drivers: amdkfd create events(event_id: 0x30, offset: 0x8000000000000000)
warn: mmap: writing to shared mmap region is currently unsupported. The write succeeds on the target, but it will not be propagated to the host or shared mappings
46209322000: system.cpu0.workload.drivers: amdkfd mmap for events(start: 0, length: 0x9000,offset: 0x8000000000000000,  )
46213688000: system.cpu0.workload.drivers: ioctl: AMDKFD_IOC_CREATE_EVENT
46213688000: system.cpu0.workload.drivers: amdkfd create events(event_id: 0x31, offset: 0x8000000000000000)
warn: mmap: writing to shared mmap region is currently unsupported. The write succeeds on the target, but it will not be propagated to the host or shared mappings
46213747000: system.cpu0.workload.drivers: amdkfd mmap for events(start: 0, length: 0x9000,offset: 0x8000000000000000,  )
46218318500: system.cpu0.workload.drivers: ioctl: AMDKFD_IOC_CREATE_EVENT
46218318500: system.cpu0.workload.drivers: amdkfd create events(event_id: 0x32, offset: 0x8000000000000000)
warn: mmap: writing to shared mmap region is currently unsupported. The write succeeds on the target, but it will not be propagated to the host or shared mappings
46218377500: system.cpu0.workload.drivers: amdkfd mmap for events(start: 0, length: 0x9000,offset: 0x8000000000000000,  )
46222710500: system.cpu0.workload.drivers: ioctl: AMDKFD_IOC_CREATE_EVENT
46222710500: system.cpu0.workload.drivers: amdkfd create events(event_id: 0x33, offset: 0x8000000000000000)
warn: mmap: writing to shared mmap region is currently unsupported. The write succeeds on the target, but it will not be propagated to the host or shared mappings
46222769500: system.cpu0.workload.drivers: amdkfd mmap for events(start: 0, length: 0x9000,offset: 0x8000000000000000,  )
46227164000: system.cpu0.workload.drivers: ioctl: AMDKFD_IOC_CREATE_EVENT
46227164000: system.cpu0.workload.drivers: amdkfd create events(event_id: 0x34, offset: 0x8000000000000000)
warn: mmap: writing to shared mmap region is currently unsupported. The write succeeds on the target, but it will not be propagated to the host or shared mappings
46227223000: system.cpu0.workload.drivers: amdkfd mmap for events(start: 0, length: 0x9000,offset: 0x8000000000000000,  )
46231843000: system.cpu0.workload.drivers: ioctl: AMDKFD_IOC_CREATE_EVENT
46231843000: system.cpu0.workload.drivers: amdkfd create events(event_id: 0x35, offset: 0x8000000000000000)
warn: mmap: writing to shared mmap region is currently unsupported. The write succeeds on the target, but it will not be propagated to the host or shared mappings
46231902000: system.cpu0.workload.drivers: amdkfd mmap for events(start: 0, length: 0x9000,offset: 0x8000000000000000,  )
46237058000: system.cpu0.workload.drivers: ioctl: AMDKFD_IOC_CREATE_EVENT
46237058000: system.cpu0.workload.drivers: amdkfd create events(event_id: 0x36, offset: 0x8000000000000000)
warn: mmap: writing to shared mmap region is currently unsupported. The write succeeds on the target, but it will not be propagated to the host or shared mappings
46237117000: system.cpu0.workload.drivers: amdkfd mmap for events(start: 0, length: 0x9000,offset: 0x8000000000000000,  )
46241645000: system.cpu0.workload.drivers: ioctl: AMDKFD_IOC_CREATE_EVENT
46241645000: system.cpu0.workload.drivers: amdkfd create events(event_id: 0x37, offset: 0x8000000000000000)
warn: mmap: writing to shared mmap region is currently unsupported. The write succeeds on the target, but it will not be propagated to the host or shared mappings
46241704000: system.cpu0.workload.drivers: amdkfd mmap for events(start: 0, length: 0x9000,offset: 0x8000000000000000,  )
46246557500: system.cpu0.workload.drivers: ioctl: AMDKFD_IOC_CREATE_EVENT
46246557500: system.cpu0.workload.drivers: amdkfd create events(event_id: 0x38, offset: 0x8000000000000000)
warn: mmap: writing to shared mmap region is currently unsupported. The write succeeds on the target, but it will not be propagated to the host or shared mappings
46246616500: system.cpu0.workload.drivers: amdkfd mmap for events(start: 0, length: 0x9000,offset: 0x8000000000000000,  )
46251219500: system.cpu0.workload.drivers: ioctl: AMDKFD_IOC_CREATE_EVENT
46251219500: system.cpu0.workload.drivers: amdkfd create events(event_id: 0x39, offset: 0x8000000000000000)
warn: mmap: writing to shared mmap region is currently unsupported. The write succeeds on the target, but it will not be propagated to the host or shared mappings
46251278500: system.cpu0.workload.drivers: amdkfd mmap for events(start: 0, length: 0x9000,offset: 0x8000000000000000,  )
46255871500: system.cpu0.workload.drivers: ioctl: AMDKFD_IOC_CREATE_EVENT
46255871500: system.cpu0.workload.drivers: amdkfd create events(event_id: 0x3a, offset: 0x8000000000000000)
warn: mmap: writing to shared mmap region is currently unsupported. The write succeeds on the target, but it will not be propagated to the host or shared mappings
46255930500: system.cpu0.workload.drivers: amdkfd mmap for events(start: 0, length: 0x9000,offset: 0x8000000000000000,  )
46260258500: system.cpu0.workload.drivers: ioctl: AMDKFD_IOC_CREATE_EVENT
46260258500: system.cpu0.workload.drivers: amdkfd create events(event_id: 0x3b, offset: 0x8000000000000000)
warn: mmap: writing to shared mmap region is currently unsupported. The write succeeds on the target, but it will not be propagated to the host or shared mappings
46260317500: system.cpu0.workload.drivers: amdkfd mmap for events(start: 0, length: 0x9000,offset: 0x8000000000000000,  )
46265001000: system.cpu0.workload.drivers: ioctl: AMDKFD_IOC_CREATE_EVENT
46265001000: system.cpu0.workload.drivers: amdkfd create events(event_id: 0x3c, offset: 0x8000000000000000)
warn: mmap: writing to shared mmap region is currently unsupported. The write succeeds on the target, but it will not be propagated to the host or shared mappings
46265060000: system.cpu0.workload.drivers: amdkfd mmap for events(start: 0, length: 0x9000,offset: 0x8000000000000000,  )
46269533500: system.cpu0.workload.drivers: ioctl: AMDKFD_IOC_CREATE_EVENT
46269533500: system.cpu0.workload.drivers: amdkfd create events(event_id: 0x3d, offset: 0x8000000000000000)
warn: mmap: writing to shared mmap region is currently unsupported. The write succeeds on the target, but it will not be propagated to the host or shared mappings
46269601500: system.cpu0.workload.drivers: amdkfd mmap for events(start: 0, length: 0x9000,offset: 0x8000000000000000,  )
46274261500: system.cpu0.workload.drivers: ioctl: AMDKFD_IOC_CREATE_EVENT
46274261500: system.cpu0.workload.drivers: amdkfd create events(event_id: 0x3e, offset: 0x8000000000000000)
warn: mmap: writing to shared mmap region is currently unsupported. The write succeeds on the target, but it will not be propagated to the host or shared mappings
46274320500: system.cpu0.workload.drivers: amdkfd mmap for events(start: 0, length: 0x9000,offset: 0x8000000000000000,  )
46278573500: system.cpu0.workload.drivers: ioctl: AMDKFD_IOC_CREATE_EVENT
46278573500: system.cpu0.workload.drivers: amdkfd create events(event_id: 0x3f, offset: 0x8000000000000000)
warn: mmap: writing to shared mmap region is currently unsupported. The write succeeds on the target, but it will not be propagated to the host or shared mappings
46278632500: system.cpu0.workload.drivers: amdkfd mmap for events(start: 0, length: 0x9000,offset: 0x8000000000000000,  )
46283638500: system.cpu0.workload.drivers: ioctl: AMDKFD_IOC_CREATE_EVENT
46283638500: system.cpu0.workload.drivers: amdkfd create events(event_id: 0x40, offset: 0x8000000000000000)
warn: mmap: writing to shared mmap region is currently unsupported. The write succeeds on the target, but it will not be propagated to the host or shared mappings
46283697500: system.cpu0.workload.drivers: amdkfd mmap for events(start: 0, length: 0x9000,offset: 0x8000000000000000,  )
46287998000: system.cpu0.workload.drivers: ioctl: AMDKFD_IOC_CREATE_EVENT
46287998000: system.cpu0.workload.drivers: amdkfd create events(event_id: 0x41, offset: 0x8000000000000000)
warn: mmap: writing to shared mmap region is currently unsupported. The write succeeds on the target, but it will not be propagated to the host or shared mappings
46288057000: system.cpu0.workload.drivers: amdkfd mmap for events(start: 0, length: 0x9000,offset: 0x8000000000000000,  )
46292619500: system.cpu0.workload.drivers: ioctl: AMDKFD_IOC_CREATE_EVENT
46292619500: system.cpu0.workload.drivers: amdkfd create events(event_id: 0x42, offset: 0x8000000000000000)
warn: mmap: writing to shared mmap region is currently unsupported. The write succeeds on the target, but it will not be propagated to the host or shared mappings
46292678500: system.cpu0.workload.drivers: amdkfd mmap for events(start: 0, length: 0x9000,offset: 0x8000000000000000,  )
46297316000: system.cpu0.workload.drivers: ioctl: AMDKFD_IOC_CREATE_EVENT
46297316000: system.cpu0.workload.drivers: amdkfd create events(event_id: 0x43, offset: 0x8000000000000000)
warn: mmap: writing to shared mmap region is currently unsupported. The write succeeds on the target, but it will not be propagated to the host or shared mappings
46297375000: system.cpu0.workload.drivers: amdkfd mmap for events(start: 0, length: 0x9000,offset: 0x8000000000000000,  )
46301984000: system.cpu0.workload.drivers: ioctl: AMDKFD_IOC_CREATE_EVENT
46301984000: system.cpu0.workload.drivers: amdkfd create events(event_id: 0x44, offset: 0x8000000000000000)
warn: mmap: writing to shared mmap region is currently unsupported. The write succeeds on the target, but it will not be propagated to the host or shared mappings
46302043000: system.cpu0.workload.drivers: amdkfd mmap for events(start: 0, length: 0x9000,offset: 0x8000000000000000,  )
46306634500: system.cpu0.workload.drivers: ioctl: AMDKFD_IOC_CREATE_EVENT
46306634500: system.cpu0.workload.drivers: amdkfd create events(event_id: 0x45, offset: 0x8000000000000000)
warn: mmap: writing to shared mmap region is currently unsupported. The write succeeds on the target, but it will not be propagated to the host or shared mappings
46306693500: system.cpu0.workload.drivers: amdkfd mmap for events(start: 0, length: 0x9000,offset: 0x8000000000000000,  )
46312019500: system.cpu0.workload.drivers: ioctl: AMDKFD_IOC_CREATE_EVENT
46312019500: system.cpu0.workload.drivers: amdkfd create events(event_id: 0x46, offset: 0x8000000000000000)
warn: mmap: writing to shared mmap region is currently unsupported. The write succeeds on the target, but it will not be propagated to the host or shared mappings
46312078500: system.cpu0.workload.drivers: amdkfd mmap for events(start: 0, length: 0x9000,offset: 0x8000000000000000,  )
46316496500: system.cpu0.workload.drivers: ioctl: AMDKFD_IOC_CREATE_EVENT
46316496500: system.cpu0.workload.drivers: amdkfd create events(event_id: 0x47, offset: 0x8000000000000000)
warn: mmap: writing to shared mmap region is currently unsupported. The write succeeds on the target, but it will not be propagated to the host or shared mappings
46316555500: system.cpu0.workload.drivers: amdkfd mmap for events(start: 0, length: 0x9000,offset: 0x8000000000000000,  )
46321375000: system.cpu0.workload.drivers: ioctl: AMDKFD_IOC_CREATE_EVENT
46321375000: system.cpu0.workload.drivers: amdkfd create events(event_id: 0x48, offset: 0x8000000000000000)
warn: mmap: writing to shared mmap region is currently unsupported. The write succeeds on the target, but it will not be propagated to the host or shared mappings
46321434000: system.cpu0.workload.drivers: amdkfd mmap for events(start: 0, length: 0x9000,offset: 0x8000000000000000,  )
46325694500: system.cpu0.workload.drivers: ioctl: AMDKFD_IOC_CREATE_EVENT
46325694500: system.cpu0.workload.drivers: amdkfd create events(event_id: 0x49, offset: 0x8000000000000000)
warn: mmap: writing to shared mmap region is currently unsupported. The write succeeds on the target, but it will not be propagated to the host or shared mappings
46325753500: system.cpu0.workload.drivers: amdkfd mmap for events(start: 0, length: 0x9000,offset: 0x8000000000000000,  )
46330243500: system.cpu0.workload.drivers: ioctl: AMDKFD_IOC_CREATE_EVENT
46330243500: system.cpu0.workload.drivers: amdkfd create events(event_id: 0x4a, offset: 0x8000000000000000)
warn: mmap: writing to shared mmap region is currently unsupported. The write succeeds on the target, but it will not be propagated to the host or shared mappings
46330302500: system.cpu0.workload.drivers: amdkfd mmap for events(start: 0, length: 0x9000,offset: 0x8000000000000000,  )
46335080000: system.cpu0.workload.drivers: ioctl: AMDKFD_IOC_CREATE_EVENT
46335080000: system.cpu0.workload.drivers: amdkfd create events(event_id: 0x4b, offset: 0x8000000000000000)
warn: mmap: writing to shared mmap region is currently unsupported. The write succeeds on the target, but it will not be propagated to the host or shared mappings
46335139000: system.cpu0.workload.drivers: amdkfd mmap for events(start: 0, length: 0x9000,offset: 0x8000000000000000,  )
46339646500: system.cpu0.workload.drivers: ioctl: AMDKFD_IOC_CREATE_EVENT
46339646500: system.cpu0.workload.drivers: amdkfd create events(event_id: 0x4c, offset: 0x8000000000000000)
warn: mmap: writing to shared mmap region is currently unsupported. The write succeeds on the target, but it will not be propagated to the host or shared mappings
46339705500: system.cpu0.workload.drivers: amdkfd mmap for events(start: 0, length: 0x9000,offset: 0x8000000000000000,  )
46344337000: system.cpu0.workload.drivers: ioctl: AMDKFD_IOC_CREATE_EVENT
46344337000: system.cpu0.workload.drivers: amdkfd create events(event_id: 0x4d, offset: 0x8000000000000000)
warn: mmap: writing to shared mmap region is currently unsupported. The write succeeds on the target, but it will not be propagated to the host or shared mappings
46344396000: system.cpu0.workload.drivers: amdkfd mmap for events(start: 0, length: 0x9000,offset: 0x8000000000000000,  )
46351387000: system.cpu0.workload.drivers: ioctl: AMDKFD_IOC_CREATE_EVENT
46351387000: system.cpu0.workload.drivers: amdkfd create events(event_id: 0x4e, offset: 0x8000000000000000)
warn: mmap: writing to shared mmap region is currently unsupported. The write succeeds on the target, but it will not be propagated to the host or shared mappings
46351455000: system.cpu0.workload.drivers: amdkfd mmap for events(start: 0, length: 0x9000,offset: 0x8000000000000000,  )
46355539500: system.cpu0.workload.drivers: ioctl: AMDKFD_IOC_CREATE_EVENT
46355539500: system.cpu0.workload.drivers: amdkfd create events(event_id: 0x4f, offset: 0x8000000000000000)
warn: mmap: writing to shared mmap region is currently unsupported. The write succeeds on the target, but it will not be propagated to the host or shared mappings
46355598500: system.cpu0.workload.drivers: amdkfd mmap for events(start: 0, length: 0x9000,offset: 0x8000000000000000,  )
46360458000: system.cpu0.workload.drivers: ioctl: AMDKFD_IOC_CREATE_EVENT
46360458000: system.cpu0.workload.drivers: amdkfd create events(event_id: 0x50, offset: 0x8000000000000000)
warn: mmap: writing to shared mmap region is currently unsupported. The write succeeds on the target, but it will not be propagated to the host or shared mappings
46360517000: system.cpu0.workload.drivers: amdkfd mmap for events(start: 0, length: 0x9000,offset: 0x8000000000000000,  )
46364799500: system.cpu0.workload.drivers: ioctl: AMDKFD_IOC_CREATE_EVENT
46364799500: system.cpu0.workload.drivers: amdkfd create events(event_id: 0x51, offset: 0x8000000000000000)
warn: mmap: writing to shared mmap region is currently unsupported. The write succeeds on the target, but it will not be propagated to the host or shared mappings
46364858500: system.cpu0.workload.drivers: amdkfd mmap for events(start: 0, length: 0x9000,offset: 0x8000000000000000,  )
46369582000: system.cpu0.workload.drivers: ioctl: AMDKFD_IOC_CREATE_EVENT
46369582000: system.cpu0.workload.drivers: amdkfd create events(event_id: 0x52, offset: 0x8000000000000000)
warn: mmap: writing to shared mmap region is currently unsupported. The write succeeds on the target, but it will not be propagated to the host or shared mappings
46369641000: system.cpu0.workload.drivers: amdkfd mmap for events(start: 0, length: 0x9000,offset: 0x8000000000000000,  )
46374008500: system.cpu0.workload.drivers: ioctl: AMDKFD_IOC_CREATE_EVENT
46374008500: system.cpu0.workload.drivers: amdkfd create events(event_id: 0x53, offset: 0x8000000000000000)
warn: mmap: writing to shared mmap region is currently unsupported. The write succeeds on the target, but it will not be propagated to the host or shared mappings
46374067500: system.cpu0.workload.drivers: amdkfd mmap for events(start: 0, length: 0x9000,offset: 0x8000000000000000,  )
46378166000: system.cpu0.workload.drivers: ioctl: AMDKFD_IOC_CREATE_EVENT
46378166000: system.cpu0.workload.drivers: amdkfd create events(event_id: 0x54, offset: 0x8000000000000000)
warn: mmap: writing to shared mmap region is currently unsupported. The write succeeds on the target, but it will not be propagated to the host or shared mappings
46378225000: system.cpu0.workload.drivers: amdkfd mmap for events(start: 0, length: 0x9000,offset: 0x8000000000000000,  )
46383070500: system.cpu0.workload.drivers: ioctl: AMDKFD_IOC_CREATE_EVENT
46383070500: system.cpu0.workload.drivers: amdkfd create events(event_id: 0x55, offset: 0x8000000000000000)
warn: mmap: writing to shared mmap region is currently unsupported. The write succeeds on the target, but it will not be propagated to the host or shared mappings
46383129500: system.cpu0.workload.drivers: amdkfd mmap for events(start: 0, length: 0x9000,offset: 0x8000000000000000,  )
46387887000: system.cpu0.workload.drivers: ioctl: AMDKFD_IOC_CREATE_EVENT
46387887000: system.cpu0.workload.drivers: amdkfd create events(event_id: 0x56, offset: 0x8000000000000000)
warn: mmap: writing to shared mmap region is currently unsupported. The write succeeds on the target, but it will not be propagated to the host or shared mappings
46387946000: system.cpu0.workload.drivers: amdkfd mmap for events(start: 0, length: 0x9000,offset: 0x8000000000000000,  )
46392399500: system.cpu0.workload.drivers: ioctl: AMDKFD_IOC_CREATE_EVENT
46392399500: system.cpu0.workload.drivers: amdkfd create events(event_id: 0x57, offset: 0x8000000000000000)
warn: mmap: writing to shared mmap region is currently unsupported. The write succeeds on the target, but it will not be propagated to the host or shared mappings
46392458500: system.cpu0.workload.drivers: amdkfd mmap for events(start: 0, length: 0x9000,offset: 0x8000000000000000,  )
46397367000: system.cpu0.workload.drivers: ioctl: AMDKFD_IOC_CREATE_EVENT
46397367000: system.cpu0.workload.drivers: amdkfd create events(event_id: 0x58, offset: 0x8000000000000000)
warn: mmap: writing to shared mmap region is currently unsupported. The write succeeds on the target, but it will not be propagated to the host or shared mappings
46397426000: system.cpu0.workload.drivers: amdkfd mmap for events(start: 0, length: 0x9000,offset: 0x8000000000000000,  )
46401897000: system.cpu0.workload.drivers: ioctl: AMDKFD_IOC_CREATE_EVENT
46401897000: system.cpu0.workload.drivers: amdkfd create events(event_id: 0x59, offset: 0x8000000000000000)
warn: mmap: writing to shared mmap region is currently unsupported. The write succeeds on the target, but it will not be propagated to the host or shared mappings
46401956000: system.cpu0.workload.drivers: amdkfd mmap for events(start: 0, length: 0x9000,offset: 0x8000000000000000,  )
46406897000: system.cpu0.workload.drivers: ioctl: AMDKFD_IOC_CREATE_EVENT
46406897000: system.cpu0.workload.drivers: amdkfd create events(event_id: 0x5a, offset: 0x8000000000000000)
warn: mmap: writing to shared mmap region is currently unsupported. The write succeeds on the target, but it will not be propagated to the host or shared mappings
46406956000: system.cpu0.workload.drivers: amdkfd mmap for events(start: 0, length: 0x9000,offset: 0x8000000000000000,  )
46411291500: system.cpu0.workload.drivers: ioctl: AMDKFD_IOC_CREATE_EVENT
46411291500: system.cpu0.workload.drivers: amdkfd create events(event_id: 0x5b, offset: 0x8000000000000000)
warn: mmap: writing to shared mmap region is currently unsupported. The write succeeds on the target, but it will not be propagated to the host or shared mappings
46411350500: system.cpu0.workload.drivers: amdkfd mmap for events(start: 0, length: 0x9000,offset: 0x8000000000000000,  )
46415994500: system.cpu0.workload.drivers: ioctl: AMDKFD_IOC_CREATE_EVENT
46415994500: system.cpu0.workload.drivers: amdkfd create events(event_id: 0x5c, offset: 0x8000000000000000)
warn: mmap: writing to shared mmap region is currently unsupported. The write succeeds on the target, but it will not be propagated to the host or shared mappings
46416053500: system.cpu0.workload.drivers: amdkfd mmap for events(start: 0, length: 0x9000,offset: 0x8000000000000000,  )
46420324000: system.cpu0.workload.drivers: ioctl: AMDKFD_IOC_CREATE_EVENT
46420324000: system.cpu0.workload.drivers: amdkfd create events(event_id: 0x5d, offset: 0x8000000000000000)
warn: mmap: writing to shared mmap region is currently unsupported. The write succeeds on the target, but it will not be propagated to the host or shared mappings
46420383000: system.cpu0.workload.drivers: amdkfd mmap for events(start: 0, length: 0x9000,offset: 0x8000000000000000,  )
46425098500: system.cpu0.workload.drivers: ioctl: AMDKFD_IOC_CREATE_EVENT
46425098500: system.cpu0.workload.drivers: amdkfd create events(event_id: 0x5e, offset: 0x8000000000000000)
warn: mmap: writing to shared mmap region is currently unsupported. The write succeeds on the target, but it will not be propagated to the host or shared mappings
46425157500: system.cpu0.workload.drivers: amdkfd mmap for events(start: 0, length: 0x9000,offset: 0x8000000000000000,  )
46429656000: system.cpu0.workload.drivers: ioctl: AMDKFD_IOC_CREATE_EVENT
46429656000: system.cpu0.workload.drivers: amdkfd create events(event_id: 0x5f, offset: 0x8000000000000000)
warn: mmap: writing to shared mmap region is currently unsupported. The write succeeds on the target, but it will not be propagated to the host or shared mappings
46429724000: system.cpu0.workload.drivers: amdkfd mmap for events(start: 0, length: 0x9000,offset: 0x8000000000000000,  )
46434525500: system.cpu0.workload.drivers: ioctl: AMDKFD_IOC_CREATE_EVENT
46434525500: system.cpu0.workload.drivers: amdkfd create events(event_id: 0x60, offset: 0x8000000000000000)
warn: mmap: writing to shared mmap region is currently unsupported. The write succeeds on the target, but it will not be propagated to the host or shared mappings
46434584500: system.cpu0.workload.drivers: amdkfd mmap for events(start: 0, length: 0x9000,offset: 0x8000000000000000,  )
46439094000: system.cpu0.workload.drivers: ioctl: AMDKFD_IOC_CREATE_EVENT
46439094000: system.cpu0.workload.drivers: amdkfd create events(event_id: 0x61, offset: 0x8000000000000000)
warn: mmap: writing to shared mmap region is currently unsupported. The write succeeds on the target, but it will not be propagated to the host or shared mappings
46439153000: system.cpu0.workload.drivers: amdkfd mmap for events(start: 0, length: 0x9000,offset: 0x8000000000000000,  )
46443814000: system.cpu0.workload.drivers: ioctl: AMDKFD_IOC_CREATE_EVENT
46443814000: system.cpu0.workload.drivers: amdkfd create events(event_id: 0x62, offset: 0x8000000000000000)
warn: mmap: writing to shared mmap region is currently unsupported. The write succeeds on the target, but it will not be propagated to the host or shared mappings
46443873000: system.cpu0.workload.drivers: amdkfd mmap for events(start: 0, length: 0x9000,offset: 0x8000000000000000,  )
46448399000: system.cpu0.workload.drivers: ioctl: AMDKFD_IOC_CREATE_EVENT
46448399000: system.cpu0.workload.drivers: amdkfd create events(event_id: 0x63, offset: 0x8000000000000000)
warn: mmap: writing to shared mmap region is currently unsupported. The write succeeds on the target, but it will not be propagated to the host or shared mappings
46448458000: system.cpu0.workload.drivers: amdkfd mmap for events(start: 0, length: 0x9000,offset: 0x8000000000000000,  )
46453235000: system.cpu0.workload.drivers: ioctl: AMDKFD_IOC_CREATE_EVENT
46453235000: system.cpu0.workload.drivers: amdkfd create events(event_id: 0x64, offset: 0x8000000000000000)
warn: mmap: writing to shared mmap region is currently unsupported. The write succeeds on the target, but it will not be propagated to the host or shared mappings
46453294000: system.cpu0.workload.drivers: amdkfd mmap for events(start: 0, length: 0x9000,offset: 0x8000000000000000,  )
46457734500: system.cpu0.workload.drivers: ioctl: AMDKFD_IOC_CREATE_EVENT
46457734500: system.cpu0.workload.drivers: amdkfd create events(event_id: 0x65, offset: 0x8000000000000000)
warn: mmap: writing to shared mmap region is currently unsupported. The write succeeds on the target, but it will not be propagated to the host or shared mappings
46457793500: system.cpu0.workload.drivers: amdkfd mmap for events(start: 0, length: 0x9000,offset: 0x8000000000000000,  )
46463332000: system.cpu0.workload.drivers: ioctl: AMDKFD_IOC_CREATE_EVENT
46463332000: system.cpu0.workload.drivers: amdkfd create events(event_id: 0x66, offset: 0x8000000000000000)
warn: mmap: writing to shared mmap region is currently unsupported. The write succeeds on the target, but it will not be propagated to the host or shared mappings
46463391000: system.cpu0.workload.drivers: amdkfd mmap for events(start: 0, length: 0x9000,offset: 0x8000000000000000,  )
46467844500: system.cpu0.workload.drivers: ioctl: AMDKFD_IOC_CREATE_EVENT
46467844500: system.cpu0.workload.drivers: amdkfd create events(event_id: 0x67, offset: 0x8000000000000000)
warn: mmap: writing to shared mmap region is currently unsupported. The write succeeds on the target, but it will not be propagated to the host or shared mappings
46467903500: system.cpu0.workload.drivers: amdkfd mmap for events(start: 0, length: 0x9000,offset: 0x8000000000000000,  )
46472423500: system.cpu0.workload.drivers: ioctl: AMDKFD_IOC_CREATE_EVENT
46472423500: system.cpu0.workload.drivers: amdkfd create events(event_id: 0x68, offset: 0x8000000000000000)
warn: mmap: writing to shared mmap region is currently unsupported. The write succeeds on the target, but it will not be propagated to the host or shared mappings
46472482500: system.cpu0.workload.drivers: amdkfd mmap for events(start: 0, length: 0x9000,offset: 0x8000000000000000,  )
46476914500: system.cpu0.workload.drivers: ioctl: AMDKFD_IOC_CREATE_EVENT
46476914500: system.cpu0.workload.drivers: amdkfd create events(event_id: 0x69, offset: 0x8000000000000000)
warn: mmap: writing to shared mmap region is currently unsupported. The write succeeds on the target, but it will not be propagated to the host or shared mappings
46476973500: system.cpu0.workload.drivers: amdkfd mmap for events(start: 0, length: 0x9000,offset: 0x8000000000000000,  )
46482171000: system.cpu0.workload.drivers: ioctl: AMDKFD_IOC_CREATE_EVENT
46482171000: system.cpu0.workload.drivers: amdkfd create events(event_id: 0x6a, offset: 0x8000000000000000)
warn: mmap: writing to shared mmap region is currently unsupported. The write succeeds on the target, but it will not be propagated to the host or shared mappings
46482230000: system.cpu0.workload.drivers: amdkfd mmap for events(start: 0, length: 0x9000,offset: 0x8000000000000000,  )
46486808500: system.cpu0.workload.drivers: ioctl: AMDKFD_IOC_CREATE_EVENT
46486808500: system.cpu0.workload.drivers: amdkfd create events(event_id: 0x6b, offset: 0x8000000000000000)
warn: mmap: writing to shared mmap region is currently unsupported. The write succeeds on the target, but it will not be propagated to the host or shared mappings
46486867500: system.cpu0.workload.drivers: amdkfd mmap for events(start: 0, length: 0x9000,offset: 0x8000000000000000,  )
46491384000: system.cpu0.workload.drivers: ioctl: AMDKFD_IOC_CREATE_EVENT
46491384000: system.cpu0.workload.drivers: amdkfd create events(event_id: 0x6c, offset: 0x8000000000000000)
warn: mmap: writing to shared mmap region is currently unsupported. The write succeeds on the target, but it will not be propagated to the host or shared mappings
46491443000: system.cpu0.workload.drivers: amdkfd mmap for events(start: 0, length: 0x9000,offset: 0x8000000000000000,  )
46495915500: system.cpu0.workload.drivers: ioctl: AMDKFD_IOC_CREATE_EVENT
46495915500: system.cpu0.workload.drivers: amdkfd create events(event_id: 0x6d, offset: 0x8000000000000000)
warn: mmap: writing to shared mmap region is currently unsupported. The write succeeds on the target, but it will not be propagated to the host or shared mappings
46495974500: system.cpu0.workload.drivers: amdkfd mmap for events(start: 0, length: 0x9000,offset: 0x8000000000000000,  )
46501310000: system.cpu0.workload.drivers: ioctl: AMDKFD_IOC_CREATE_EVENT
46501310000: system.cpu0.workload.drivers: amdkfd create events(event_id: 0x6e, offset: 0x8000000000000000)
warn: mmap: writing to shared mmap region is currently unsupported. The write succeeds on the target, but it will not be propagated to the host or shared mappings
46501369000: system.cpu0.workload.drivers: amdkfd mmap for events(start: 0, length: 0x9000,offset: 0x8000000000000000,  )
46505712000: system.cpu0.workload.drivers: ioctl: AMDKFD_IOC_CREATE_EVENT
46505712000: system.cpu0.workload.drivers: amdkfd create events(event_id: 0x6f, offset: 0x8000000000000000)
warn: mmap: writing to shared mmap region is currently unsupported. The write succeeds on the target, but it will not be propagated to the host or shared mappings
46505771000: system.cpu0.workload.drivers: amdkfd mmap for events(start: 0, length: 0x9000,offset: 0x8000000000000000,  )
46510726500: system.cpu0.workload.drivers: ioctl: AMDKFD_IOC_CREATE_EVENT
46510726500: system.cpu0.workload.drivers: amdkfd create events(event_id: 0x70, offset: 0x8000000000000000)
warn: mmap: writing to shared mmap region is currently unsupported. The write succeeds on the target, but it will not be propagated to the host or shared mappings
46510794500: system.cpu0.workload.drivers: amdkfd mmap for events(start: 0, length: 0x9000,offset: 0x8000000000000000,  )
46515117500: system.cpu0.workload.drivers: ioctl: AMDKFD_IOC_CREATE_EVENT
46515117500: system.cpu0.workload.drivers: amdkfd create events(event_id: 0x71, offset: 0x8000000000000000)
warn: mmap: writing to shared mmap region is currently unsupported. The write succeeds on the target, but it will not be propagated to the host or shared mappings
46515176500: system.cpu0.workload.drivers: amdkfd mmap for events(start: 0, length: 0x9000,offset: 0x8000000000000000,  )
46520015000: system.cpu0.workload.drivers: ioctl: AMDKFD_IOC_CREATE_EVENT
46520015000: system.cpu0.workload.drivers: amdkfd create events(event_id: 0x72, offset: 0x8000000000000000)
warn: mmap: writing to shared mmap region is currently unsupported. The write succeeds on the target, but it will not be propagated to the host or shared mappings
46520074000: system.cpu0.workload.drivers: amdkfd mmap for events(start: 0, length: 0x9000,offset: 0x8000000000000000,  )
46524361000: system.cpu0.workload.drivers: ioctl: AMDKFD_IOC_CREATE_EVENT
46524361000: system.cpu0.workload.drivers: amdkfd create events(event_id: 0x73, offset: 0x8000000000000000)
warn: mmap: writing to shared mmap region is currently unsupported. The write succeeds on the target, but it will not be propagated to the host or shared mappings
46524420000: system.cpu0.workload.drivers: amdkfd mmap for events(start: 0, length: 0x9000,offset: 0x8000000000000000,  )
46528905500: system.cpu0.workload.drivers: ioctl: AMDKFD_IOC_CREATE_EVENT
46528905500: system.cpu0.workload.drivers: amdkfd create events(event_id: 0x74, offset: 0x8000000000000000)
warn: mmap: writing to shared mmap region is currently unsupported. The write succeeds on the target, but it will not be propagated to the host or shared mappings
46528964500: system.cpu0.workload.drivers: amdkfd mmap for events(start: 0, length: 0x9000,offset: 0x8000000000000000,  )
46533327500: system.cpu0.workload.drivers: ioctl: AMDKFD_IOC_CREATE_EVENT
46533327500: system.cpu0.workload.drivers: amdkfd create events(event_id: 0x75, offset: 0x8000000000000000)
warn: mmap: writing to shared mmap region is currently unsupported. The write succeeds on the target, but it will not be propagated to the host or shared mappings
46533386500: system.cpu0.workload.drivers: amdkfd mmap for events(start: 0, length: 0x9000,offset: 0x8000000000000000,  )
46538203000: system.cpu0.workload.drivers: ioctl: AMDKFD_IOC_CREATE_EVENT
46538203000: system.cpu0.workload.drivers: amdkfd create events(event_id: 0x76, offset: 0x8000000000000000)
warn: mmap: writing to shared mmap region is currently unsupported. The write succeeds on the target, but it will not be propagated to the host or shared mappings
46538262000: system.cpu0.workload.drivers: amdkfd mmap for events(start: 0, length: 0x9000,offset: 0x8000000000000000,  )
46542770000: system.cpu0.workload.drivers: ioctl: AMDKFD_IOC_CREATE_EVENT
46542770000: system.cpu0.workload.drivers: amdkfd create events(event_id: 0x77, offset: 0x8000000000000000)
warn: mmap: writing to shared mmap region is currently unsupported. The write succeeds on the target, but it will not be propagated to the host or shared mappings
46542829000: system.cpu0.workload.drivers: amdkfd mmap for events(start: 0, length: 0x9000,offset: 0x8000000000000000,  )
46547443500: system.cpu0.workload.drivers: ioctl: AMDKFD_IOC_CREATE_EVENT
46547443500: system.cpu0.workload.drivers: amdkfd create events(event_id: 0x78, offset: 0x8000000000000000)
warn: mmap: writing to shared mmap region is currently unsupported. The write succeeds on the target, but it will not be propagated to the host or shared mappings
46547502500: system.cpu0.workload.drivers: amdkfd mmap for events(start: 0, length: 0x9000,offset: 0x8000000000000000,  )
46552044000: system.cpu0.workload.drivers: ioctl: AMDKFD_IOC_CREATE_EVENT
46552044000: system.cpu0.workload.drivers: amdkfd create events(event_id: 0x79, offset: 0x8000000000000000)
warn: mmap: writing to shared mmap region is currently unsupported. The write succeeds on the target, but it will not be propagated to the host or shared mappings
46552103000: system.cpu0.workload.drivers: amdkfd mmap for events(start: 0, length: 0x9000,offset: 0x8000000000000000,  )
46556873000: system.cpu0.workload.drivers: ioctl: AMDKFD_IOC_CREATE_EVENT
46556873000: system.cpu0.workload.drivers: amdkfd create events(event_id: 0x7a, offset: 0x8000000000000000)
warn: mmap: writing to shared mmap region is currently unsupported. The write succeeds on the target, but it will not be propagated to the host or shared mappings
46556932000: system.cpu0.workload.drivers: amdkfd mmap for events(start: 0, length: 0x9000,offset: 0x8000000000000000,  )
46561266000: system.cpu0.workload.drivers: ioctl: AMDKFD_IOC_CREATE_EVENT
46561266000: system.cpu0.workload.drivers: amdkfd create events(event_id: 0x7b, offset: 0x8000000000000000)
warn: mmap: writing to shared mmap region is currently unsupported. The write succeeds on the target, but it will not be propagated to the host or shared mappings
46561325000: system.cpu0.workload.drivers: amdkfd mmap for events(start: 0, length: 0x9000,offset: 0x8000000000000000,  )
46565903000: system.cpu0.workload.drivers: ioctl: AMDKFD_IOC_CREATE_EVENT
46565903000: system.cpu0.workload.drivers: amdkfd create events(event_id: 0x7c, offset: 0x8000000000000000)
warn: mmap: writing to shared mmap region is currently unsupported. The write succeeds on the target, but it will not be propagated to the host or shared mappings
46565962000: system.cpu0.workload.drivers: amdkfd mmap for events(start: 0, length: 0x9000,offset: 0x8000000000000000,  )
46570407000: system.cpu0.workload.drivers: ioctl: AMDKFD_IOC_CREATE_EVENT
46570407000: system.cpu0.workload.drivers: amdkfd create events(event_id: 0x7d, offset: 0x8000000000000000)
warn: mmap: writing to shared mmap region is currently unsupported. The write succeeds on the target, but it will not be propagated to the host or shared mappings
46570466000: system.cpu0.workload.drivers: amdkfd mmap for events(start: 0, length: 0x9000,offset: 0x8000000000000000,  )
46575599000: system.cpu0.workload.drivers: ioctl: AMDKFD_IOC_CREATE_EVENT
46575599000: system.cpu0.workload.drivers: amdkfd create events(event_id: 0x7e, offset: 0x8000000000000000)
warn: mmap: writing to shared mmap region is currently unsupported. The write succeeds on the target, but it will not be propagated to the host or shared mappings
46575658000: system.cpu0.workload.drivers: amdkfd mmap for events(start: 0, length: 0x9000,offset: 0x8000000000000000,  )
46579923500: system.cpu0.workload.drivers: ioctl: AMDKFD_IOC_CREATE_EVENT
46579923500: system.cpu0.workload.drivers: amdkfd create events(event_id: 0x7f, offset: 0x8000000000000000)
warn: mmap: writing to shared mmap region is currently unsupported. The write succeeds on the target, but it will not be propagated to the host or shared mappings
46579982500: system.cpu0.workload.drivers: amdkfd mmap for events(start: 0, length: 0x9000,offset: 0x8000000000000000,  )
46584453500: system.cpu0.workload.drivers: ioctl: AMDKFD_IOC_CREATE_EVENT
46584453500: system.cpu0.workload.drivers: amdkfd create events(event_id: 0x80, offset: 0x8000000000000000)
warn: mmap: writing to shared mmap region is currently unsupported. The write succeeds on the target, but it will not be propagated to the host or shared mappings
46584512500: system.cpu0.workload.drivers: amdkfd mmap for events(start: 0, length: 0x9000,offset: 0x8000000000000000,  )
46589195500: system.cpu0.workload.drivers: ioctl: AMDKFD_IOC_CREATE_EVENT
46589195500: system.cpu0.workload.drivers: amdkfd create events(event_id: 0x81, offset: 0x8000000000000000)
warn: mmap: writing to shared mmap region is currently unsupported. The write succeeds on the target, but it will not be propagated to the host or shared mappings
46589263500: system.cpu0.workload.drivers: amdkfd mmap for events(start: 0, length: 0x9000,offset: 0x8000000000000000,  )
46594004500: system.cpu0.workload.drivers: ioctl: AMDKFD_IOC_CREATE_EVENT
46594004500: system.cpu0.workload.drivers: amdkfd create events(event_id: 0x82, offset: 0x8000000000000000)
warn: mmap: writing to shared mmap region is currently unsupported. The write succeeds on the target, but it will not be propagated to the host or shared mappings
46594063500: system.cpu0.workload.drivers: amdkfd mmap for events(start: 0, length: 0x9000,offset: 0x8000000000000000,  )
46598356500: system.cpu0.workload.drivers: ioctl: AMDKFD_IOC_CREATE_EVENT
46598356500: system.cpu0.workload.drivers: amdkfd create events(event_id: 0x83, offset: 0x8000000000000000)
warn: mmap: writing to shared mmap region is currently unsupported. The write succeeds on the target, but it will not be propagated to the host or shared mappings
46598415500: system.cpu0.workload.drivers: amdkfd mmap for events(start: 0, length: 0x9000,offset: 0x8000000000000000,  )
46603381500: system.cpu0.workload.drivers: ioctl: AMDKFD_IOC_CREATE_EVENT
46603381500: system.cpu0.workload.drivers: amdkfd create events(event_id: 0x84, offset: 0x8000000000000000)
warn: mmap: writing to shared mmap region is currently unsupported. The write succeeds on the target, but it will not be propagated to the host or shared mappings
46603440500: system.cpu0.workload.drivers: amdkfd mmap for events(start: 0, length: 0x9000,offset: 0x8000000000000000,  )
46607989500: system.cpu0.workload.drivers: ioctl: AMDKFD_IOC_CREATE_EVENT
46607989500: system.cpu0.workload.drivers: amdkfd create events(event_id: 0x85, offset: 0x8000000000000000)
warn: mmap: writing to shared mmap region is currently unsupported. The write succeeds on the target, but it will not be propagated to the host or shared mappings
46608048500: system.cpu0.workload.drivers: amdkfd mmap for events(start: 0, length: 0x9000,offset: 0x8000000000000000,  )
46612755500: system.cpu0.workload.drivers: ioctl: AMDKFD_IOC_CREATE_EVENT
46612755500: system.cpu0.workload.drivers: amdkfd create events(event_id: 0x86, offset: 0x8000000000000000)
warn: mmap: writing to shared mmap region is currently unsupported. The write succeeds on the target, but it will not be propagated to the host or shared mappings
46612814500: system.cpu0.workload.drivers: amdkfd mmap for events(start: 0, length: 0x9000,offset: 0x8000000000000000,  )
46617132000: system.cpu0.workload.drivers: ioctl: AMDKFD_IOC_CREATE_EVENT
46617132000: system.cpu0.workload.drivers: amdkfd create events(event_id: 0x87, offset: 0x8000000000000000)
warn: mmap: writing to shared mmap region is currently unsupported. The write succeeds on the target, but it will not be propagated to the host or shared mappings
46617191000: system.cpu0.workload.drivers: amdkfd mmap for events(start: 0, length: 0x9000,offset: 0x8000000000000000,  )
46621848500: system.cpu0.workload.drivers: ioctl: AMDKFD_IOC_CREATE_EVENT
46621848500: system.cpu0.workload.drivers: amdkfd create events(event_id: 0x88, offset: 0x8000000000000000)
warn: mmap: writing to shared mmap region is currently unsupported. The write succeeds on the target, but it will not be propagated to the host or shared mappings
46621907500: system.cpu0.workload.drivers: amdkfd mmap for events(start: 0, length: 0x9000,offset: 0x8000000000000000,  )
46626368500: system.cpu0.workload.drivers: ioctl: AMDKFD_IOC_CREATE_EVENT
46626368500: system.cpu0.workload.drivers: amdkfd create events(event_id: 0x89, offset: 0x8000000000000000)
warn: mmap: writing to shared mmap region is currently unsupported. The write succeeds on the target, but it will not be propagated to the host or shared mappings
46626427500: system.cpu0.workload.drivers: amdkfd mmap for events(start: 0, length: 0x9000,offset: 0x8000000000000000,  )
46631020500: system.cpu0.workload.drivers: ioctl: AMDKFD_IOC_CREATE_EVENT
46631020500: system.cpu0.workload.drivers: amdkfd create events(event_id: 0x8a, offset: 0x8000000000000000)
warn: mmap: writing to shared mmap region is currently unsupported. The write succeeds on the target, but it will not be propagated to the host or shared mappings
46631079500: system.cpu0.workload.drivers: amdkfd mmap for events(start: 0, length: 0x9000,offset: 0x8000000000000000,  )
46635461000: system.cpu0.workload.drivers: ioctl: AMDKFD_IOC_CREATE_EVENT
46635461000: system.cpu0.workload.drivers: amdkfd create events(event_id: 0x8b, offset: 0x8000000000000000)
warn: mmap: writing to shared mmap region is currently unsupported. The write succeeds on the target, but it will not be propagated to the host or shared mappings
46635520000: system.cpu0.workload.drivers: amdkfd mmap for events(start: 0, length: 0x9000,offset: 0x8000000000000000,  )
46640429000: system.cpu0.workload.drivers: ioctl: AMDKFD_IOC_CREATE_EVENT
46640429000: system.cpu0.workload.drivers: amdkfd create events(event_id: 0x8c, offset: 0x8000000000000000)
warn: mmap: writing to shared mmap region is currently unsupported. The write succeeds on the target, but it will not be propagated to the host or shared mappings
46640488000: system.cpu0.workload.drivers: amdkfd mmap for events(start: 0, length: 0x9000,offset: 0x8000000000000000,  )
46644801500: system.cpu0.workload.drivers: ioctl: AMDKFD_IOC_CREATE_EVENT
46644801500: system.cpu0.workload.drivers: amdkfd create events(event_id: 0x8d, offset: 0x8000000000000000)
warn: mmap: writing to shared mmap region is currently unsupported. The write succeeds on the target, but it will not be propagated to the host or shared mappings
46644860500: system.cpu0.workload.drivers: amdkfd mmap for events(start: 0, length: 0x9000,offset: 0x8000000000000000,  )
46653361500: system.cpu0.workload.drivers: ioctl: AMDKFD_IOC_CREATE_EVENT
46653361500: system.cpu0.workload.drivers: amdkfd create events(event_id: 0x8e, offset: 0x8000000000000000)
warn: mmap: writing to shared mmap region is currently unsupported. The write succeeds on the target, but it will not be propagated to the host or shared mappings
46653420500: system.cpu0.workload.drivers: amdkfd mmap for events(start: 0, length: 0x9000,offset: 0x8000000000000000,  )
46657021000: system.cpu0.workload.drivers: ioctl: AMDKFD_IOC_CREATE_EVENT
46657021000: system.cpu0.workload.drivers: amdkfd create events(event_id: 0x8f, offset: 0x8000000000000000)
warn: mmap: writing to shared mmap region is currently unsupported. The write succeeds on the target, but it will not be propagated to the host or shared mappings
46657080000: system.cpu0.workload.drivers: amdkfd mmap for events(start: 0, length: 0x9000,offset: 0x8000000000000000,  )
46661301500: system.cpu0.workload.drivers: ioctl: AMDKFD_IOC_CREATE_EVENT
46661301500: system.cpu0.workload.drivers: amdkfd create events(event_id: 0x90, offset: 0x8000000000000000)
warn: mmap: writing to shared mmap region is currently unsupported. The write succeeds on the target, but it will not be propagated to the host or shared mappings
46661360500: system.cpu0.workload.drivers: amdkfd mmap for events(start: 0, length: 0x9000,offset: 0x8000000000000000,  )
46665648000: system.cpu0.workload.drivers: ioctl: AMDKFD_IOC_CREATE_EVENT
46665648000: system.cpu0.workload.drivers: amdkfd create events(event_id: 0x91, offset: 0x8000000000000000)
warn: mmap: writing to shared mmap region is currently unsupported. The write succeeds on the target, but it will not be propagated to the host or shared mappings
46665707000: system.cpu0.workload.drivers: amdkfd mmap for events(start: 0, length: 0x9000,offset: 0x8000000000000000,  )
46670816500: system.cpu0.workload.drivers: ioctl: AMDKFD_IOC_CREATE_EVENT
46670816500: system.cpu0.workload.drivers: amdkfd create events(event_id: 0x92, offset: 0x8000000000000000)
warn: mmap: writing to shared mmap region is currently unsupported. The write succeeds on the target, but it will not be propagated to the host or shared mappings
46670884500: system.cpu0.workload.drivers: amdkfd mmap for events(start: 0, length: 0x9000,offset: 0x8000000000000000,  )
46675170500: system.cpu0.workload.drivers: ioctl: AMDKFD_IOC_CREATE_EVENT
46675170500: system.cpu0.workload.drivers: amdkfd create events(event_id: 0x93, offset: 0x8000000000000000)
warn: mmap: writing to shared mmap region is currently unsupported. The write succeeds on the target, but it will not be propagated to the host or shared mappings
46675229500: system.cpu0.workload.drivers: amdkfd mmap for events(start: 0, length: 0x9000,offset: 0x8000000000000000,  )
46680238000: system.cpu0.workload.drivers: ioctl: AMDKFD_IOC_CREATE_EVENT
46680238000: system.cpu0.workload.drivers: amdkfd create events(event_id: 0x94, offset: 0x8000000000000000)
warn: mmap: writing to shared mmap region is currently unsupported. The write succeeds on the target, but it will not be propagated to the host or shared mappings
46680297000: system.cpu0.workload.drivers: amdkfd mmap for events(start: 0, length: 0x9000,offset: 0x8000000000000000,  )
46684588500: system.cpu0.workload.drivers: ioctl: AMDKFD_IOC_CREATE_EVENT
46684588500: system.cpu0.workload.drivers: amdkfd create events(event_id: 0x95, offset: 0x8000000000000000)
warn: mmap: writing to shared mmap region is currently unsupported. The write succeeds on the target, but it will not be propagated to the host or shared mappings
[...]
94025223500: system.cpu0.workload.drivers: amdkfd destroying event 396
94028401500: system.cpu0.workload.drivers: ioctl: AMDKFD_IOC_DESTROY_EVENT
94028401500: system.cpu0.workload.drivers: amdkfd destroying event 397
94031725500: system.cpu0.workload.drivers: ioctl: AMDKFD_IOC_DESTROY_EVENT
94031725500: system.cpu0.workload.drivers: amdkfd destroying event 398
94034871500: system.cpu0.workload.drivers: ioctl: AMDKFD_IOC_DESTROY_EVENT
94034871500: system.cpu0.workload.drivers: amdkfd destroying event 399
94038374500: system.cpu0.workload.drivers: ioctl: AMDKFD_IOC_DESTROY_EVENT
94038374500: system.cpu0.workload.drivers: amdkfd destroying event 400
94041554500: system.cpu0.workload.drivers: ioctl: AMDKFD_IOC_DESTROY_EVENT
94041554500: system.cpu0.workload.drivers: amdkfd destroying event 401
94044709000: system.cpu0.workload.drivers: ioctl: AMDKFD_IOC_DESTROY_EVENT
94044709000: system.cpu0.workload.drivers: amdkfd destroying event 402
94047827000: system.cpu0.workload.drivers: ioctl: AMDKFD_IOC_DESTROY_EVENT
94047827000: system.cpu0.workload.drivers: amdkfd destroying event 403
94051529500: system.cpu0.workload.drivers: ioctl: AMDKFD_IOC_DESTROY_EVENT
94051529500: system.cpu0.workload.drivers: amdkfd destroying event 404
94054566500: system.cpu0.workload.drivers: ioctl: AMDKFD_IOC_DESTROY_EVENT
94054566500: system.cpu0.workload.drivers: amdkfd destroying event 405
94057663000: system.cpu0.workload.drivers: ioctl: AMDKFD_IOC_DESTROY_EVENT
94057663000: system.cpu0.workload.drivers: amdkfd destroying event 406
94060747000: system.cpu0.workload.drivers: ioctl: AMDKFD_IOC_DESTROY_EVENT
94060747000: system.cpu0.workload.drivers: amdkfd destroying event 407
94064245500: system.cpu0.workload.drivers: ioctl: AMDKFD_IOC_DESTROY_EVENT
94064245500: system.cpu0.workload.drivers: amdkfd destroying event 408
94067267000: system.cpu0.workload.drivers: ioctl: AMDKFD_IOC_DESTROY_EVENT
94067267000: system.cpu0.workload.drivers: amdkfd destroying event 409
94070380500: system.cpu0.workload.drivers: ioctl: AMDKFD_IOC_DESTROY_EVENT
94070380500: system.cpu0.workload.drivers: amdkfd destroying event 410
94073575000: system.cpu0.workload.drivers: ioctl: AMDKFD_IOC_DESTROY_EVENT
94073575000: system.cpu0.workload.drivers: amdkfd destroying event 411
94077514000: system.cpu0.workload.drivers: ioctl: AMDKFD_IOC_DESTROY_EVENT
94077514000: system.cpu0.workload.drivers: amdkfd destroying event 412
94080395000: system.cpu0.workload.drivers: ioctl: AMDKFD_IOC_DESTROY_EVENT
94080395000: system.cpu0.workload.drivers: amdkfd destroying event 413
94083476500: system.cpu0.workload.drivers: ioctl: AMDKFD_IOC_DESTROY_EVENT
94083476500: system.cpu0.workload.drivers: amdkfd destroying event 414
94086322500: system.cpu0.workload.drivers: ioctl: AMDKFD_IOC_DESTROY_EVENT
94086322500: system.cpu0.workload.drivers: amdkfd destroying event 415
94089511500: system.cpu0.workload.drivers: ioctl: AMDKFD_IOC_DESTROY_EVENT
94089511500: system.cpu0.workload.drivers: amdkfd destroying event 416
94092503500: system.cpu0.workload.drivers: ioctl: AMDKFD_IOC_DESTROY_EVENT
94092503500: system.cpu0.workload.drivers: amdkfd destroying event 417
94095515000: system.cpu0.workload.drivers: ioctl: AMDKFD_IOC_DESTROY_EVENT
94095515000: system.cpu0.workload.drivers: amdkfd destroying event 418
94098399500: system.cpu0.workload.drivers: ioctl: AMDKFD_IOC_DESTROY_EVENT
94098399500: system.cpu0.workload.drivers: amdkfd destroying event 419
94101551500: system.cpu0.workload.drivers: ioctl: AMDKFD_IOC_DESTROY_EVENT
94101551500: system.cpu0.workload.drivers: amdkfd destroying event 420
94104977500: system.cpu0.workload.drivers: ioctl: AMDKFD_IOC_DESTROY_EVENT
94104977500: system.cpu0.workload.drivers: amdkfd destroying event 421
94107907000: system.cpu0.workload.drivers: ioctl: AMDKFD_IOC_DESTROY_EVENT
94107907000: system.cpu0.workload.drivers: amdkfd destroying event 422
94110694000: system.cpu0.workload.drivers: ioctl: AMDKFD_IOC_DESTROY_EVENT
94110694000: system.cpu0.workload.drivers: amdkfd destroying event 423
94113580500: system.cpu0.workload.drivers: ioctl: AMDKFD_IOC_DESTROY_EVENT
94113580500: system.cpu0.workload.drivers: amdkfd destroying event 424
94116308000: system.cpu0.workload.drivers: ioctl: AMDKFD_IOC_DESTROY_EVENT
94116308000: system.cpu0.workload.drivers: amdkfd destroying event 425
94119230500: system.cpu0.workload.drivers: ioctl: AMDKFD_IOC_DESTROY_EVENT
94119230500: system.cpu0.workload.drivers: amdkfd destroying event 426
94122238000: system.cpu0.workload.drivers: ioctl: AMDKFD_IOC_DESTROY_EVENT
94122238000: system.cpu0.workload.drivers: amdkfd destroying event 427
94126795000: system.cpu0.workload.drivers: ioctl: AMDKFD_IOC_DESTROY_EVENT
94126795000: system.cpu0.workload.drivers: amdkfd destroying event 428
94129592500: system.cpu0.workload.drivers: ioctl: AMDKFD_IOC_DESTROY_EVENT
94129592500: system.cpu0.workload.drivers: amdkfd destroying event 429
94132419000: system.cpu0.workload.drivers: ioctl: AMDKFD_IOC_DESTROY_EVENT
94132419000: system.cpu0.workload.drivers: amdkfd destroying event 430
94135245000: system.cpu0.workload.drivers: ioctl: AMDKFD_IOC_DESTROY_EVENT
94135245000: system.cpu0.workload.drivers: amdkfd destroying event 431
94138260000: system.cpu0.workload.drivers: ioctl: AMDKFD_IOC_DESTROY_EVENT
94138260000: system.cpu0.workload.drivers: amdkfd destroying event 432
94140967500: system.cpu0.workload.drivers: ioctl: AMDKFD_IOC_DESTROY_EVENT
94140967500: system.cpu0.workload.drivers: amdkfd destroying event 433
94143687000: system.cpu0.workload.drivers: ioctl: AMDKFD_IOC_DESTROY_EVENT
94143687000: system.cpu0.workload.drivers: amdkfd destroying event 434
94146488500: system.cpu0.workload.drivers: ioctl: AMDKFD_IOC_DESTROY_EVENT
94146488500: system.cpu0.workload.drivers: amdkfd destroying event 435
94149914000: system.cpu0.workload.drivers: ioctl: AMDKFD_IOC_DESTROY_EVENT
94149914000: system.cpu0.workload.drivers: amdkfd destroying event 436
94152686500: system.cpu0.workload.drivers: ioctl: AMDKFD_IOC_DESTROY_EVENT
94152686500: system.cpu0.workload.drivers: amdkfd destroying event 437
94156004500: system.cpu0.workload.drivers: ioctl: AMDKFD_IOC_DESTROY_EVENT
94156004500: system.cpu0.workload.drivers: amdkfd destroying event 438
94158690500: system.cpu0.workload.drivers: ioctl: AMDKFD_IOC_DESTROY_EVENT
94158690500: system.cpu0.workload.drivers: amdkfd destroying event 439
94161728000: system.cpu0.workload.drivers: ioctl: AMDKFD_IOC_DESTROY_EVENT
94161728000: system.cpu0.workload.drivers: amdkfd destroying event 440
94164319000: system.cpu0.workload.drivers: ioctl: AMDKFD_IOC_DESTROY_EVENT
94164319000: system.cpu0.workload.drivers: amdkfd destroying event 441
94167016500: system.cpu0.workload.drivers: ioctl: AMDKFD_IOC_DESTROY_EVENT
94167016500: system.cpu0.workload.drivers: amdkfd destroying event 442
94169813000: system.cpu0.workload.drivers: ioctl: AMDKFD_IOC_DESTROY_EVENT
94169813000: system.cpu0.workload.drivers: amdkfd destroying event 443
94173950000: system.cpu0.workload.drivers: ioctl: AMDKFD_IOC_DESTROY_EVENT
94173950000: system.cpu0.workload.drivers: amdkfd destroying event 444
94176580500: system.cpu0.workload.drivers: ioctl: AMDKFD_IOC_DESTROY_EVENT
94176580500: system.cpu0.workload.drivers: amdkfd destroying event 445
94179324500: system.cpu0.workload.drivers: ioctl: AMDKFD_IOC_DESTROY_EVENT
94179324500: system.cpu0.workload.drivers: amdkfd destroying event 446
94181989000: system.cpu0.workload.drivers: ioctl: AMDKFD_IOC_DESTROY_EVENT
94181989000: system.cpu0.workload.drivers: amdkfd destroying event 447
94184840500: system.cpu0.workload.drivers: ioctl: AMDKFD_IOC_DESTROY_EVENT
94184840500: system.cpu0.workload.drivers: amdkfd destroying event 448
94187473000: system.cpu0.workload.drivers: ioctl: AMDKFD_IOC_DESTROY_EVENT
94187473000: system.cpu0.workload.drivers: amdkfd destroying event 449
94190185500: system.cpu0.workload.drivers: ioctl: AMDKFD_IOC_DESTROY_EVENT
94190185500: system.cpu0.workload.drivers: amdkfd destroying event 450
94192798000: system.cpu0.workload.drivers: ioctl: AMDKFD_IOC_DESTROY_EVENT
94192798000: system.cpu0.workload.drivers: amdkfd destroying event 451
94195705000: system.cpu0.workload.drivers: ioctl: AMDKFD_IOC_DESTROY_EVENT
94195705000: system.cpu0.workload.drivers: amdkfd destroying event 452
94198371500: system.cpu0.workload.drivers: ioctl: AMDKFD_IOC_DESTROY_EVENT
94198371500: system.cpu0.workload.drivers: amdkfd destroying event 453
94201056000: system.cpu0.workload.drivers: ioctl: AMDKFD_IOC_DESTROY_EVENT
94201056000: system.cpu0.workload.drivers: amdkfd destroying event 454
94203558500: system.cpu0.workload.drivers: ioctl: AMDKFD_IOC_DESTROY_EVENT
94203558500: system.cpu0.workload.drivers: amdkfd destroying event 455
94206245000: system.cpu0.workload.drivers: ioctl: AMDKFD_IOC_DESTROY_EVENT
94206245000: system.cpu0.workload.drivers: amdkfd destroying event 456
94209434000: system.cpu0.workload.drivers: ioctl: AMDKFD_IOC_DESTROY_EVENT
94209434000: system.cpu0.workload.drivers: amdkfd destroying event 457
94212029500: system.cpu0.workload.drivers: ioctl: AMDKFD_IOC_DESTROY_EVENT
94212029500: system.cpu0.workload.drivers: amdkfd destroying event 458
94214717000: system.cpu0.workload.drivers: ioctl: AMDKFD_IOC_DESTROY_EVENT
94214717000: system.cpu0.workload.drivers: amdkfd destroying event 459
94218922000: system.cpu0.workload.drivers: ioctl: AMDKFD_IOC_DESTROY_EVENT
94218922000: system.cpu0.workload.drivers: amdkfd destroying event 460
94221559500: system.cpu0.workload.drivers: ioctl: AMDKFD_IOC_DESTROY_EVENT
94221559500: system.cpu0.workload.drivers: amdkfd destroying event 461
94224222500: system.cpu0.workload.drivers: ioctl: AMDKFD_IOC_DESTROY_EVENT
94224222500: system.cpu0.workload.drivers: amdkfd destroying event 462
94226686000: system.cpu0.workload.drivers: ioctl: AMDKFD_IOC_DESTROY_EVENT
94226686000: system.cpu0.workload.drivers: amdkfd destroying event 463
94229492000: system.cpu0.workload.drivers: ioctl: AMDKFD_IOC_DESTROY_EVENT
94229492000: system.cpu0.workload.drivers: amdkfd destroying event 464
94232047000: system.cpu0.workload.drivers: ioctl: AMDKFD_IOC_DESTROY_EVENT
94232047000: system.cpu0.workload.drivers: amdkfd destroying event 465
94234685000: system.cpu0.workload.drivers: ioctl: AMDKFD_IOC_DESTROY_EVENT
94234685000: system.cpu0.workload.drivers: amdkfd destroying event 466
94237327000: system.cpu0.workload.drivers: ioctl: AMDKFD_IOC_DESTROY_EVENT
94237327000: system.cpu0.workload.drivers: amdkfd destroying event 467
94240377000: system.cpu0.workload.drivers: ioctl: AMDKFD_IOC_DESTROY_EVENT
94240377000: system.cpu0.workload.drivers: amdkfd destroying event 468
94243024500: system.cpu0.workload.drivers: ioctl: AMDKFD_IOC_DESTROY_EVENT
94243024500: system.cpu0.workload.drivers: amdkfd destroying event 469
94245778500: system.cpu0.workload.drivers: ioctl: AMDKFD_IOC_DESTROY_EVENT
94245778500: system.cpu0.workload.drivers: amdkfd destroying event 470
94248264000: system.cpu0.workload.drivers: ioctl: AMDKFD_IOC_DESTROY_EVENT
94248264000: system.cpu0.workload.drivers: amdkfd destroying event 471
94251083000: system.cpu0.workload.drivers: ioctl: AMDKFD_IOC_DESTROY_EVENT
94251083000: system.cpu0.workload.drivers: amdkfd destroying event 472
94253669000: system.cpu0.workload.drivers: ioctl: AMDKFD_IOC_DESTROY_EVENT
94253669000: system.cpu0.workload.drivers: amdkfd destroying event 473
94256284000: system.cpu0.workload.drivers: ioctl: AMDKFD_IOC_DESTROY_EVENT
94256284000: system.cpu0.workload.drivers: amdkfd destroying event 474
94259370000: system.cpu0.workload.drivers: ioctl: AMDKFD_IOC_DESTROY_EVENT
94259370000: system.cpu0.workload.drivers: amdkfd destroying event 475
94262639000: system.cpu0.workload.drivers: ioctl: AMDKFD_IOC_DESTROY_EVENT
94262639000: system.cpu0.workload.drivers: amdkfd destroying event 476
94265152000: system.cpu0.workload.drivers: ioctl: AMDKFD_IOC_DESTROY_EVENT
94265152000: system.cpu0.workload.drivers: amdkfd destroying event 477
94267639500: system.cpu0.workload.drivers: ioctl: AMDKFD_IOC_DESTROY_EVENT
94267639500: system.cpu0.workload.drivers: amdkfd destroying event 478
94270027000: system.cpu0.workload.drivers: ioctl: AMDKFD_IOC_DESTROY_EVENT
94270027000: system.cpu0.workload.drivers: amdkfd destroying event 479
94272748500: system.cpu0.workload.drivers: ioctl: AMDKFD_IOC_DESTROY_EVENT
94272748500: system.cpu0.workload.drivers: amdkfd destroying event 480
94275109000: system.cpu0.workload.drivers: ioctl: AMDKFD_IOC_DESTROY_EVENT
94275109000: system.cpu0.workload.drivers: amdkfd destroying event 481
94277592500: system.cpu0.workload.drivers: ioctl: AMDKFD_IOC_DESTROY_EVENT
94277592500: system.cpu0.workload.drivers: amdkfd destroying event 482
94280172000: system.cpu0.workload.drivers: ioctl: AMDKFD_IOC_DESTROY_EVENT
94280172000: system.cpu0.workload.drivers: amdkfd destroying event 483
94283001000: system.cpu0.workload.drivers: ioctl: AMDKFD_IOC_DESTROY_EVENT
94283001000: system.cpu0.workload.drivers: amdkfd destroying event 484
94285923000: system.cpu0.workload.drivers: ioctl: AMDKFD_IOC_DESTROY_EVENT
94285923000: system.cpu0.workload.drivers: amdkfd destroying event 485
94288339500: system.cpu0.workload.drivers: ioctl: AMDKFD_IOC_DESTROY_EVENT
94288339500: system.cpu0.workload.drivers: amdkfd destroying event 486
94290773000: system.cpu0.workload.drivers: ioctl: AMDKFD_IOC_DESTROY_EVENT
94290773000: system.cpu0.workload.drivers: amdkfd destroying event 487
94293345500: system.cpu0.workload.drivers: ioctl: AMDKFD_IOC_DESTROY_EVENT
94293345500: system.cpu0.workload.drivers: amdkfd destroying event 488
94295650500: system.cpu0.workload.drivers: ioctl: AMDKFD_IOC_DESTROY_EVENT
94295650500: system.cpu0.workload.drivers: amdkfd destroying event 489
94298014500: system.cpu0.workload.drivers: ioctl: AMDKFD_IOC_DESTROY_EVENT
94298014500: system.cpu0.workload.drivers: amdkfd destroying event 490
94301056000: system.cpu0.workload.drivers: ioctl: AMDKFD_IOC_DESTROY_EVENT
94301056000: system.cpu0.workload.drivers: amdkfd destroying event 491
94304861500: system.cpu0.workload.drivers: ioctl: AMDKFD_IOC_DESTROY_EVENT
94304861500: system.cpu0.workload.drivers: amdkfd destroying event 492
94307294500: system.cpu0.workload.drivers: ioctl: AMDKFD_IOC_DESTROY_EVENT
94307294500: system.cpu0.workload.drivers: amdkfd destroying event 493
94309681000: system.cpu0.workload.drivers: ioctl: AMDKFD_IOC_DESTROY_EVENT
94309681000: system.cpu0.workload.drivers: amdkfd destroying event 494
94312076000: system.cpu0.workload.drivers: ioctl: AMDKFD_IOC_DESTROY_EVENT
94312076000: system.cpu0.workload.drivers: amdkfd destroying event 495
94314804500: system.cpu0.workload.drivers: ioctl: AMDKFD_IOC_DESTROY_EVENT
94314804500: system.cpu0.workload.drivers: amdkfd destroying event 496
94317092000: system.cpu0.workload.drivers: ioctl: AMDKFD_IOC_DESTROY_EVENT
94317092000: system.cpu0.workload.drivers: amdkfd destroying event 497
94319553000: system.cpu0.workload.drivers: ioctl: AMDKFD_IOC_DESTROY_EVENT
94319553000: system.cpu0.workload.drivers: amdkfd destroying event 498
94322031500: system.cpu0.workload.drivers: ioctl: AMDKFD_IOC_DESTROY_EVENT
94322031500: system.cpu0.workload.drivers: amdkfd destroying event 499
94325108000: system.cpu0.workload.drivers: ioctl: AMDKFD_IOC_DESTROY_EVENT
94325108000: system.cpu0.workload.drivers: amdkfd destroying event 500
94327376500: system.cpu0.workload.drivers: ioctl: AMDKFD_IOC_DESTROY_EVENT
94327376500: system.cpu0.workload.drivers: amdkfd destroying event 501
94329728000: system.cpu0.workload.drivers: ioctl: AMDKFD_IOC_DESTROY_EVENT
94329728000: system.cpu0.workload.drivers: amdkfd destroying event 502
94331969500: system.cpu0.workload.drivers: ioctl: AMDKFD_IOC_DESTROY_EVENT
94331969500: system.cpu0.workload.drivers: amdkfd destroying event 503
94334575500: system.cpu0.workload.drivers: ioctl: AMDKFD_IOC_DESTROY_EVENT
94334575500: system.cpu0.workload.drivers: amdkfd destroying event 504
94336918500: system.cpu0.workload.drivers: ioctl: AMDKFD_IOC_DESTROY_EVENT
94336918500: system.cpu0.workload.drivers: amdkfd destroying event 505
94339344500: system.cpu0.workload.drivers: ioctl: AMDKFD_IOC_DESTROY_EVENT
94339344500: system.cpu0.workload.drivers: amdkfd destroying event 506
94341679500: system.cpu0.workload.drivers: ioctl: AMDKFD_IOC_DESTROY_EVENT
94341679500: system.cpu0.workload.drivers: amdkfd destroying event 507
94344490500: system.cpu0.workload.drivers: ioctl: AMDKFD_IOC_DESTROY_EVENT
94344490500: system.cpu0.workload.drivers: amdkfd destroying event 508
94346826500: system.cpu0.workload.drivers: ioctl: AMDKFD_IOC_DESTROY_EVENT
94346826500: system.cpu0.workload.drivers: amdkfd destroying event 509
94349236500: system.cpu0.workload.drivers: ioctl: AMDKFD_IOC_DESTROY_EVENT
94349236500: system.cpu0.workload.drivers: amdkfd destroying event 510
94352027000: system.cpu0.workload.drivers: ioctl: AMDKFD_IOC_DESTROY_EVENT
94352027000: system.cpu0.workload.drivers: amdkfd destroying event 511
94354679500: system.cpu0.workload.drivers: ioctl: AMDKFD_IOC_DESTROY_EVENT
94354679500: system.cpu0.workload.drivers: amdkfd destroying event 512
94357057500: system.cpu0.workload.drivers: ioctl: AMDKFD_IOC_DESTROY_EVENT
94357057500: system.cpu0.workload.drivers: amdkfd destroying event 513
94359355000: system.cpu0.workload.drivers: ioctl: AMDKFD_IOC_DESTROY_EVENT
94359355000: system.cpu0.workload.drivers: amdkfd destroying event 514
94361757500: system.cpu0.workload.drivers: ioctl: AMDKFD_IOC_DESTROY_EVENT
94361757500: system.cpu0.workload.drivers: amdkfd destroying event 515
94364666500: system.cpu0.workload.drivers: ioctl: AMDKFD_IOC_DESTROY_EVENT
94364666500: system.cpu0.workload.drivers: amdkfd destroying event 516
94366862000: system.cpu0.workload.drivers: ioctl: AMDKFD_IOC_DESTROY_EVENT
94366862000: system.cpu0.workload.drivers: amdkfd destroying event 517
94369122500: system.cpu0.workload.drivers: ioctl: AMDKFD_IOC_DESTROY_EVENT
94369122500: system.cpu0.workload.drivers: amdkfd destroying event 518
94371382500: system.cpu0.workload.drivers: ioctl: AMDKFD_IOC_DESTROY_EVENT
94371382500: system.cpu0.workload.drivers: amdkfd destroying event 519
94374119000: system.cpu0.workload.drivers: ioctl: AMDKFD_IOC_DESTROY_EVENT
94374119000: system.cpu0.workload.drivers: amdkfd destroying event 520
94376268500: system.cpu0.workload.drivers: ioctl: AMDKFD_IOC_DESTROY_EVENT
94376268500: system.cpu0.workload.drivers: amdkfd destroying event 521
94378513500: system.cpu0.workload.drivers: ioctl: AMDKFD_IOC_DESTROY_EVENT
94378513500: system.cpu0.workload.drivers: amdkfd destroying event 522
94380637000: system.cpu0.workload.drivers: ioctl: AMDKFD_IOC_DESTROY_EVENT
94380637000: system.cpu0.workload.drivers: amdkfd destroying event 523
94383071000: system.cpu0.workload.drivers: ioctl: AMDKFD_IOC_DESTROY_EVENT
94383071000: system.cpu0.workload.drivers: amdkfd destroying event 524
94422937000: system.cpu0.workload.drivers: ioctl: AMDKFD_IOC_SET_EVENTS
94422937000: system.cpu0.workload.drivers: amdkfd set event 1
94422937000: system.cpu0.workload.drivers: Signal event: Waking up CPU 1
warn: ignoring syscall madvise(...)
94445228500: system.cpu0.workload.drivers: ioctl: AMDKFD_IOC_DESTROY_EVENT
94445228500: system.cpu0.workload.drivers: amdkfd destroying event 1
94460043500: system.cpu0.workload.drivers: ioctl: AMDKFD_IOC_DESTROY_EVENT
94460043500: system.cpu0.workload.drivers: amdkfd destroying event 3
94468297000: system.cpu0.workload.drivers: ioctl: AMDKFD_IOC_DESTROY_EVENT
94468297000: system.cpu0.workload.drivers: amdkfd destroying event 4
94476185000: system.cpu0.workload.drivers: ioctl: AMDKFD_IOC_DESTROY_EVENT
94476185000: system.cpu0.workload.drivers: amdkfd destroying event 2
94482769500: system.cpu0.workload.drivers: ioctl: AMDKFD_IOC_DESTROY_QUEUE;queue offset 0
94482769500: global: Trying to map next queue, @ contextSwitchQ94496222500: system.cpu0.workload.drivers: ioctl: AMDKFD_IOC_DESTROY_QUEUE;queue offset 1
94496222500: global: Trying to map next queue, @ contextSwitchQTicks: 94647637000
Exiting because  exiting with last active thread context
