warn: system.ruby.network adopting orphan SimObject param 'int_links'
warn: system.ruby.network adopting orphan SimObject param 'ext_links'
gem5 Simulator System.  http://gem5.org
gem5 is copyrighted software; use the --copyright option for details.

gem5 compiled Apr  8 2020 13:01:30
gem5 started Apr  8 2020 14:17:20
gem5 executing on impa, pid 23113
command line: build/GCN3_X86/gem5.opt --debug-flags=HSAPacketProcessor,HSADriver,GPUDriver configs/example/apu_se_mod.py -n2 --benchmark-root=/u/b/w/bwyogatama/Research/Scheduling/gem5_clean/gem5/histogram -c histogram.out

Num SQC =  1 Num scalar caches =  1 Num CU =  4
Num GPUs =  1
TCC_bits = 0
Num Dirs = 1
<orphan System>.ruby.cp_cntrl0
<orphan System>.ruby.tcp_cntrl0
<orphan System>.ruby.tcp_cntrl1
<orphan System>.ruby.tcp_cntrl2
<orphan System>.ruby.tcp_cntrl3
<orphan System>.ruby.sqc_cntrl0
<orphan System>.ruby.scalar_cntrl0
<orphan System>.ruby.tcc_cntrl0
<orphan System>.dma_cntrl0
<orphan System>.dma_cntrl1
Global frequency set at 1000000000000 ticks per second
warn: DRAM device capacity (8192 Mbytes) does not match the address range assigned (512 Mbytes)
      0: system.cpu2.gpu_cmd_proc.hsapp: HSAPacketProcessor:
      0: system.cpu0.workload.drivers: Constructing KFD: device
Forcing maxCoalescedReqs to 32 (TLB assoc.) 
Forcing maxCoalescedReqs to 32 (TLB assoc.) 
Forcing maxCoalescedReqs to 32 (TLB assoc.) 
Forcing maxCoalescedReqs to 32 (TLB assoc.) 
Forcing maxCoalescedReqs to 32 (TLB assoc.) 
Forcing maxCoalescedReqs to 32 (TLB assoc.) 
Forcing maxCoalescedReqs to 32 (TLB assoc.) 
Forcing maxCoalescedReqs to 32 (TLB assoc.) 
0: system.remote_gdb: listening for remote gdb on port 7000
0: system.remote_gdb: listening for remote gdb on port 7001
info: Entering event queue @ 0.  Starting simulation...
warn: Replacement policy updates recently became the responsibility of SLICC state machines. Make sure to setMRU() near callbacks in .sm files!
warn: x86 cpuid family 0x0000: unimplemented function 7
warn: ignoring syscall access(...)
warn: ignoring syscall access(...)
warn: ignoring syscall mprotect(...)
warn: ignoring syscall access(...)
warn: ignoring syscall mprotect(...)
warn: ignoring syscall access(...)
warn: ignoring syscall mprotect(...)
warn: ignoring syscall access(...)
warn: ignoring syscall mprotect(...)
warn: ignoring syscall mprotect(...)
warn: ignoring syscall mprotect(...)
warn: ignoring syscall mprotect(...)
warn: ignoring syscall mprotect(...)
warn: ignoring syscall mprotect(...)
warn: ignoring syscall access(...)
warn: ignoring syscall mprotect(...)
warn: ignoring syscall access(...)
warn: ignoring syscall mprotect(...)
warn: ignoring syscall access(...)
warn: ignoring syscall mprotect(...)
warn: ignoring syscall mprotect(...)
warn: ignoring syscall access(...)
warn: ignoring syscall mprotect(...)
warn: ignoring syscall access(...)
warn: ignoring syscall mprotect(...)
warn: ignoring syscall access(...)
warn: ignoring syscall mprotect(...)
warn: ignoring syscall access(...)
warn: ignoring syscall mprotect(...)
warn: ignoring syscall access(...)
warn: ignoring syscall mprotect(...)
warn: ignoring syscall mprotect(...)
warn: ignoring syscall mprotect(...)
warn: ignoring syscall mprotect(...)
warn: ignoring syscall mprotect(...)
warn: ignoring syscall mprotect(...)
warn: ignoring syscall mprotect(...)
warn: ignoring syscall mprotect(...)
warn: ignoring syscall mprotect(...)
warn: ignoring syscall mprotect(...)
warn: ignoring syscall mprotect(...)
warn: ignoring syscall mprotect(...)
warn: ignoring syscall mprotect(...)
warn: ignoring syscall mprotect(...)
warn: ignoring syscall mprotect(...)
warn: ignoring syscall mprotect(...)
warn: ignoring syscall mprotect(...)
warn: ignoring syscall mprotect(...)
warn: ignoring syscall mprotect(...)
warn: ignoring syscall set_robust_list(...)
warn: ignoring syscall rt_sigaction(...)
      (further warnings will be suppressed)
warn: ignoring syscall rt_sigprocmask(...)
      (further warnings will be suppressed)
warn: ignoring syscall mprotect(...)
warn: ignoring syscall mprotect(...)
17250241500: system.cpu0.workload.drivers: Opened kfd
warn: ignoring syscall access(...)
17469119500: system.cpu0.workload.drivers: ioctl: AMDKFD_IOC_GET_PROCESS_APERTURES_NEW
ioc_args->num_of_nodes: 1
warn: fcntl: unsupported command 6
warn: fcntl: unsupported command 6
17489290000: system.cpu0.workload.drivers: ioctl: AMDKFD_IOC_GET_VERSION
Failed to get Processor Vendor. Setting to GenuineIntel
warn: ignoring syscall sched_getaffinity(...)
warn: ignoring syscall sched_setaffinity(...)
warn: x86 cpuid family 0x0000: unimplemented function 4 returning 0x0, 0x0, 0x0, 0x0.
warn: ignoring syscall sched_setaffinity(...)
warn: x86 cpuid family 0x0000: unimplemented function 4 returning 0x0, 0x0, 0x0, 0x0.
warn: ignoring syscall sched_setaffinity(...)
warn: ignoring syscall access(...)
17653476000: system.cpu0.workload.drivers: ioctl: AMDKFD_IOC_GET_CLOCK_COUNTERS
17658460500: system.cpu0.workload.drivers: ioctl: AMDKFD_IOC_GET_CLOCK_COUNTERS
warn: ignoring syscall mprotect(...)
warn: ignoring syscall mprotect(...)
warn: ignoring syscall mprotect(...)
warn: ignoring syscall mprotect(...)
warn: unimplemented ioctl: AMDKFD_IOC_ALLOC_MEMORY_OF_SCRATCH
warn: mmap: writing to shared mmap region is currently unsupported. The write succeeds on the target, but it will not be propagated to the host or shared mappings
warn: mmap: writing to shared mmap region is currently unsupported. The write succeeds on the target, but it will not be propagated to the host or shared mappings
warn: ignoring syscall mprotect(...)
warn: ignoring syscall mprotect(...)
warn: ignoring syscall mprotect(...)
34523036000: system.cpu0.workload.drivers: ioctl: AMDKFD_IOC_CREATE_QUEUE
GPU ID: 2765
args->doorbell_offset1: 0xc2b3400000000
args->doorbell_offset2: 0xc2b3400000000000
34523036000: system.cpu2.gpu_cmd_proc.hsapp: setDeviceQueueDesc:base = 0x7ffef42dc000, qID = 0, ze = 524288
34523036000: global: Trying to map new queue, @ mapQIfSlotAvlbl
34523036000: global: Trying to find empty HW queue, @ findEmptyHWQ
34523036000: global: Mapped HSA queue 0 to hw queue 0: @ addQCntxt
34523036000: system.cpu2.gpu_cmd_proc.hsapp: getCommandsFromHost: read-pointer offset[0x0], write-pointer offset[0x0] doorbell(0)[0x0] 
34523036000: global: registerNewQueue: offset = 0, qID = 0, is_regd = true, AL size 1
34523036000: system.cpu0.workload.drivers: Creating queue 1
warn: mmap: writing to shared mmap region is currently unsupported. The write succeeds on the target, but it will not be propagated to the host or shared mappings
34528223500: system.cpu0.workload.drivers: amdkfd doorbell mmap (start: 0, length: 0x1000,offset: 0x0)
vm_pgoff: 0xc2b3400000000
offset: 0x0
GPU ID: 0xacd
34528223500: system.cpu0.workload.drivers: amdkfd doorbell mapped to 7ffef4037000p
34559289000: system.cpu0.workload.drivers: ioctl: AMDKFD_IOC_CREATE_EVENT
34559289000: system.cpu0.workload.drivers: amdkfd create events(event_id: 0x190e5fb0, offset: 0x8000000000000000)
warn: mmap: writing to shared mmap region is currently unsupported. The write succeeds on the target, but it will not be propagated to the host or shared mappings
34559680500: system.cpu0.workload.drivers: amdkfd mmap for events(start: 0, length: 0x9000,offset: 0x8000000000000000,  )
34588532000: system.cpu0.workload.drivers: ioctl: AMDKFD_IOC_CREATE_EVENT
34588532000: system.cpu0.workload.drivers: amdkfd create events(event_id: 0x190e5fb1, offset: 0x8000000000000000)
warn: mmap: writing to shared mmap region is currently unsupported. The write succeeds on the target, but it will not be propagated to the host or shared mappings
34588591000: system.cpu0.workload.drivers: amdkfd mmap for events(start: 0, length: 0x9000,offset: 0x8000000000000000,  )
warn: ignoring syscall mprotect(...)
warn: ClockedObject: Already in the requested power state, request ignored
warn: ignoring syscall set_robust_list(...)
warn: ignoring syscall mprotect(...)
34658786500: system.cpu0.workload.drivers: ioctl: AMDKFD_IOC_CREATE_EVENT
34658786500: system.cpu0.workload.drivers: amdkfd create events(event_id: 0x190e5fb2, offset: 0x8000000000000000)
warn: mmap: writing to shared mmap region is currently unsupported. The write succeeds on the target, but it will not be propagated to the host or shared mappings
34658872500: system.cpu0.workload.drivers: amdkfd mmap for events(start: 0, length: 0x9000,offset: 0x8000000000000000,  )
warn: ignoring syscall mprotect(...)
warn: ignoring syscall mprotect(...)
warn: ignoring syscall mprotect(...)
warn: mmap: writing to shared mmap region is currently unsupported. The write succeeds on the target, but it will not be propagated to the host or shared mappings
warn: mmap: writing to shared mmap region is currently unsupported. The write succeeds on the target, but it will not be propagated to the host or shared mappings
warn: ignoring syscall mprotect(...)
warn: ignoring syscall mprotect(...)
warn: ignoring syscall mprotect(...)
41512382500: system.cpu0.workload.drivers: ioctl: AMDKFD_IOC_CREATE_QUEUE
GPU ID: 2765
args->doorbell_offset1: 0xc2b3400000000
args->doorbell_offset2: 0xc2b3400000000000
41512382500: system.cpu2.gpu_cmd_proc.hsapp: setDeviceQueueDesc:base = 0x7ffef3754000, qID = 1, ze = 524288
41512382500: global: Trying to map new queue, @ mapQIfSlotAvlbl
41512382500: global: Trying to find empty HW queue, @ findEmptyHWQ
41512382500: global: Mapped HSA queue 1 to hw queue 1: @ addQCntxt
41512382500: system.cpu2.gpu_cmd_proc.hsapp: getCommandsFromHost: read-pointer offset[0x0], write-pointer offset[0x0] doorbell(0)[0x4] 
41512382500: global: registerNewQueue: offset = 0x4, qID = 1, is_regd = true, AL size 2
41512382500: system.cpu0.workload.drivers: Creating queue 2
warn: ignoring syscall mprotect(...)
41570028500: system.cpu0.workload.drivers: ioctl: AMDKFD_IOC_CREATE_EVENT
41570028500: system.cpu0.workload.drivers: amdkfd create events(event_id: 0x190e5fb3, offset: 0x8000000000000000)
warn: mmap: writing to shared mmap region is currently unsupported. The write succeeds on the target, but it will not be propagated to the host or shared mappings
41570766000: system.cpu0.workload.drivers: amdkfd mmap for events(start: 0, length: 0x9000,offset: 0x8000000000000000,  )
warn: ignoring syscall mprotect(...)
warn: ignoring syscall mprotect(...)
warn: ignoring syscall mprotect(...)
41658683500: system.cpu0.workload.drivers: ioctl: AMDKFD_IOC_CREATE_EVENT
41658683500: system.cpu0.workload.drivers: amdkfd create events(event_id: 0x190e5fb4, offset: 0x8000000000000000)
warn: mmap: writing to shared mmap region is currently unsupported. The write succeeds on the target, but it will not be propagated to the host or shared mappings
41658742500: system.cpu0.workload.drivers: amdkfd mmap for events(start: 0, length: 0x9000,offset: 0x8000000000000000,  )
warn: ignoring syscall mprotect(...)
warn: ignoring syscall mprotect(...)
warn: ignoring syscall mprotect(...)
45981103000: system.cpu0.workload.drivers: ioctl: AMDKFD_IOC_CREATE_EVENT
45981103000: system.cpu0.workload.drivers: amdkfd create events(event_id: 0x190e5fb5, offset: 0x8000000000000000)
warn: mmap: writing to shared mmap region is currently unsupported. The write succeeds on the target, but it will not be propagated to the host or shared mappings
45981207000: system.cpu0.workload.drivers: amdkfd mmap for events(start: 0, length: 0x9000,offset: 0x8000000000000000,  )
45984937500: system.cpu0.workload.drivers: ioctl: AMDKFD_IOC_CREATE_EVENT
45984937500: system.cpu0.workload.drivers: amdkfd create events(event_id: 0x190e5fb6, offset: 0x8000000000000000)
warn: mmap: writing to shared mmap region is currently unsupported. The write succeeds on the target, but it will not be propagated to the host or shared mappings
45984996500: system.cpu0.workload.drivers: amdkfd mmap for events(start: 0, length: 0x9000,offset: 0x8000000000000000,  )
45997622000: system.cpu0.workload.drivers: ioctl: AMDKFD_IOC_CREATE_EVENT
45997622000: system.cpu0.workload.drivers: amdkfd create events(event_id: 0x190e5fb7, offset: 0x8000000000000000)
warn: mmap: writing to shared mmap region is currently unsupported. The write succeeds on the target, but it will not be propagated to the host or shared mappings
45997690000: system.cpu0.workload.drivers: amdkfd mmap for events(start: 0, length: 0x9000,offset: 0x8000000000000000,  )
46002182000: system.cpu0.workload.drivers: ioctl: AMDKFD_IOC_CREATE_EVENT
46002182000: system.cpu0.workload.drivers: amdkfd create events(event_id: 0x190e5fb8, offset: 0x8000000000000000)
warn: mmap: writing to shared mmap region is currently unsupported. The write succeeds on the target, but it will not be propagated to the host or shared mappings
46002241000: system.cpu0.workload.drivers: amdkfd mmap for events(start: 0, length: 0x9000,offset: 0x8000000000000000,  )
46017530000: system.cpu0.workload.drivers: ioctl: AMDKFD_IOC_CREATE_EVENT
46017530000: system.cpu0.workload.drivers: amdkfd create events(event_id: 0x190e5fb9, offset: 0x8000000000000000)
warn: mmap: writing to shared mmap region is currently unsupported. The write succeeds on the target, but it will not be propagated to the host or shared mappings
46017616000: system.cpu0.workload.drivers: amdkfd mmap for events(start: 0, length: 0x9000,offset: 0x8000000000000000,  )
46021716000: system.cpu0.workload.drivers: ioctl: AMDKFD_IOC_CREATE_EVENT
46021716000: system.cpu0.workload.drivers: amdkfd create events(event_id: 0x190e5fba, offset: 0x8000000000000000)
warn: mmap: writing to shared mmap region is currently unsupported. The write succeeds on the target, but it will not be propagated to the host or shared mappings
46021775000: system.cpu0.workload.drivers: amdkfd mmap for events(start: 0, length: 0x9000,offset: 0x8000000000000000,  )
46033352000: system.cpu0.workload.drivers: ioctl: AMDKFD_IOC_CREATE_EVENT
46033352000: system.cpu0.workload.drivers: amdkfd create events(event_id: 0x190e5fbb, offset: 0x8000000000000000)
warn: mmap: writing to shared mmap region is currently unsupported. The write succeeds on the target, but it will not be propagated to the host or shared mappings
46033420000: system.cpu0.workload.drivers: amdkfd mmap for events(start: 0, length: 0x9000,offset: 0x8000000000000000,  )
46037715500: system.cpu0.workload.drivers: ioctl: AMDKFD_IOC_CREATE_EVENT
46037715500: system.cpu0.workload.drivers: amdkfd create events(event_id: 0x190e5fbc, offset: 0x8000000000000000)
warn: mmap: writing to shared mmap region is currently unsupported. The write succeeds on the target, but it will not be propagated to the host or shared mappings
46037774500: system.cpu0.workload.drivers: amdkfd mmap for events(start: 0, length: 0x9000,offset: 0x8000000000000000,  )
46055538000: system.cpu0.workload.drivers: ioctl: AMDKFD_IOC_CREATE_EVENT
46055538000: system.cpu0.workload.drivers: amdkfd create events(event_id: 0x190e5fbd, offset: 0x8000000000000000)
warn: mmap: writing to shared mmap region is currently unsupported. The write succeeds on the target, but it will not be propagated to the host or shared mappings
46055606000: system.cpu0.workload.drivers: amdkfd mmap for events(start: 0, length: 0x9000,offset: 0x8000000000000000,  )
46061206500: system.cpu0.workload.drivers: ioctl: AMDKFD_IOC_CREATE_EVENT
46061206500: system.cpu0.workload.drivers: amdkfd create events(event_id: 0x190e5fbe, offset: 0x8000000000000000)
warn: mmap: writing to shared mmap region is currently unsupported. The write succeeds on the target, but it will not be propagated to the host or shared mappings
46061265500: system.cpu0.workload.drivers: amdkfd mmap for events(start: 0, length: 0x9000,offset: 0x8000000000000000,  )
46065915500: system.cpu0.workload.drivers: ioctl: AMDKFD_IOC_CREATE_EVENT
46065915500: system.cpu0.workload.drivers: amdkfd create events(event_id: 0x190e5fbf, offset: 0x8000000000000000)
warn: mmap: writing to shared mmap region is currently unsupported. The write succeeds on the target, but it will not be propagated to the host or shared mappings
46065974500: system.cpu0.workload.drivers: amdkfd mmap for events(start: 0, length: 0x9000,offset: 0x8000000000000000,  )
46070902500: system.cpu0.workload.drivers: ioctl: AMDKFD_IOC_CREATE_EVENT
46070902500: system.cpu0.workload.drivers: amdkfd create events(event_id: 0x190e5fc0, offset: 0x8000000000000000)
warn: mmap: writing to shared mmap region is currently unsupported. The write succeeds on the target, but it will not be propagated to the host or shared mappings
46070961500: system.cpu0.workload.drivers: amdkfd mmap for events(start: 0, length: 0x9000,offset: 0x8000000000000000,  )
46075009500: system.cpu0.workload.drivers: ioctl: AMDKFD_IOC_CREATE_EVENT
46075009500: system.cpu0.workload.drivers: amdkfd create events(event_id: 0x190e5fc1, offset: 0x8000000000000000)
warn: mmap: writing to shared mmap region is currently unsupported. The write succeeds on the target, but it will not be propagated to the host or shared mappings
46075068500: system.cpu0.workload.drivers: amdkfd mmap for events(start: 0, length: 0x9000,offset: 0x8000000000000000,  )
46080702000: system.cpu0.workload.drivers: ioctl: AMDKFD_IOC_CREATE_EVENT
46080702000: system.cpu0.workload.drivers: amdkfd create events(event_id: 0x190e5fc2, offset: 0x8000000000000000)
warn: mmap: writing to shared mmap region is currently unsupported. The write succeeds on the target, but it will not be propagated to the host or shared mappings
46080761000: system.cpu0.workload.drivers: amdkfd mmap for events(start: 0, length: 0x9000,offset: 0x8000000000000000,  )
46085026500: system.cpu0.workload.drivers: ioctl: AMDKFD_IOC_CREATE_EVENT
46085026500: system.cpu0.workload.drivers: amdkfd create events(event_id: 0x190e5fc3, offset: 0x8000000000000000)
warn: mmap: writing to shared mmap region is currently unsupported. The write succeeds on the target, but it will not be propagated to the host or shared mappings
46085085500: system.cpu0.workload.drivers: amdkfd mmap for events(start: 0, length: 0x9000,offset: 0x8000000000000000,  )
46089309000: system.cpu0.workload.drivers: ioctl: AMDKFD_IOC_CREATE_EVENT
46089309000: system.cpu0.workload.drivers: amdkfd create events(event_id: 0x190e5fc4, offset: 0x8000000000000000)
warn: mmap: writing to shared mmap region is currently unsupported. The write succeeds on the target, but it will not be propagated to the host or shared mappings
46089368000: system.cpu0.workload.drivers: amdkfd mmap for events(start: 0, length: 0x9000,offset: 0x8000000000000000,  )
46093492500: system.cpu0.workload.drivers: ioctl: AMDKFD_IOC_CREATE_EVENT
46093492500: system.cpu0.workload.drivers: amdkfd create events(event_id: 0x190e5fc5, offset: 0x8000000000000000)
warn: mmap: writing to shared mmap region is currently unsupported. The write succeeds on the target, but it will not be propagated to the host or shared mappings
46093551500: system.cpu0.workload.drivers: amdkfd mmap for events(start: 0, length: 0x9000,offset: 0x8000000000000000,  )
46098837500: system.cpu0.workload.drivers: ioctl: AMDKFD_IOC_CREATE_EVENT
46098837500: system.cpu0.workload.drivers: amdkfd create events(event_id: 0x190e5fc6, offset: 0x8000000000000000)
warn: mmap: writing to shared mmap region is currently unsupported. The write succeeds on the target, but it will not be propagated to the host or shared mappings
46098896500: system.cpu0.workload.drivers: amdkfd mmap for events(start: 0, length: 0x9000,offset: 0x8000000000000000,  )
46103333000: system.cpu0.workload.drivers: ioctl: AMDKFD_IOC_CREATE_EVENT
46103333000: system.cpu0.workload.drivers: amdkfd create events(event_id: 0x190e5fc7, offset: 0x8000000000000000)
warn: mmap: writing to shared mmap region is currently unsupported. The write succeeds on the target, but it will not be propagated to the host or shared mappings
46103392000: system.cpu0.workload.drivers: amdkfd mmap for events(start: 0, length: 0x9000,offset: 0x8000000000000000,  )
46107783000: system.cpu0.workload.drivers: ioctl: AMDKFD_IOC_CREATE_EVENT
46107783000: system.cpu0.workload.drivers: amdkfd create events(event_id: 0x190e5fc8, offset: 0x8000000000000000)
warn: mmap: writing to shared mmap region is currently unsupported. The write succeeds on the target, but it will not be propagated to the host or shared mappings
46107842000: system.cpu0.workload.drivers: amdkfd mmap for events(start: 0, length: 0x9000,offset: 0x8000000000000000,  )
46111977500: system.cpu0.workload.drivers: ioctl: AMDKFD_IOC_CREATE_EVENT
46111977500: system.cpu0.workload.drivers: amdkfd create events(event_id: 0x190e5fc9, offset: 0x8000000000000000)
warn: mmap: writing to shared mmap region is currently unsupported. The write succeeds on the target, but it will not be propagated to the host or shared mappings
46112036500: system.cpu0.workload.drivers: amdkfd mmap for events(start: 0, length: 0x9000,offset: 0x8000000000000000,  )
46116657000: system.cpu0.workload.drivers: ioctl: AMDKFD_IOC_CREATE_EVENT
46116657000: system.cpu0.workload.drivers: amdkfd create events(event_id: 0x190e5fca, offset: 0x8000000000000000)
warn: mmap: writing to shared mmap region is currently unsupported. The write succeeds on the target, but it will not be propagated to the host or shared mappings
46116716000: system.cpu0.workload.drivers: amdkfd mmap for events(start: 0, length: 0x9000,offset: 0x8000000000000000,  )
46121296000: system.cpu0.workload.drivers: ioctl: AMDKFD_IOC_CREATE_EVENT
46121296000: system.cpu0.workload.drivers: amdkfd create events(event_id: 0x190e5fcb, offset: 0x8000000000000000)
warn: mmap: writing to shared mmap region is currently unsupported. The write succeeds on the target, but it will not be propagated to the host or shared mappings
46121364000: system.cpu0.workload.drivers: amdkfd mmap for events(start: 0, length: 0x9000,offset: 0x8000000000000000,  )
46125937500: system.cpu0.workload.drivers: ioctl: AMDKFD_IOC_CREATE_EVENT
46125937500: system.cpu0.workload.drivers: amdkfd create events(event_id: 0x190e5fcc, offset: 0x8000000000000000)
warn: mmap: writing to shared mmap region is currently unsupported. The write succeeds on the target, but it will not be propagated to the host or shared mappings
46125996500: system.cpu0.workload.drivers: amdkfd mmap for events(start: 0, length: 0x9000,offset: 0x8000000000000000,  )
46130292500: system.cpu0.workload.drivers: ioctl: AMDKFD_IOC_CREATE_EVENT
46130292500: system.cpu0.workload.drivers: amdkfd create events(event_id: 0x190e5fcd, offset: 0x8000000000000000)
warn: mmap: writing to shared mmap region is currently unsupported. The write succeeds on the target, but it will not be propagated to the host or shared mappings
46130351500: system.cpu0.workload.drivers: amdkfd mmap for events(start: 0, length: 0x9000,offset: 0x8000000000000000,  )
46136880500: system.cpu0.workload.drivers: ioctl: AMDKFD_IOC_CREATE_EVENT
46136880500: system.cpu0.workload.drivers: amdkfd create events(event_id: 0x190e5fce, offset: 0x8000000000000000)
warn: mmap: writing to shared mmap region is currently unsupported. The write succeeds on the target, but it will not be propagated to the host or shared mappings
46136939500: system.cpu0.workload.drivers: amdkfd mmap for events(start: 0, length: 0x9000,offset: 0x8000000000000000,  )
46141232500: system.cpu0.workload.drivers: ioctl: AMDKFD_IOC_CREATE_EVENT
46141232500: system.cpu0.workload.drivers: amdkfd create events(event_id: 0x190e5fcf, offset: 0x8000000000000000)
warn: mmap: writing to shared mmap region is currently unsupported. The write succeeds on the target, but it will not be propagated to the host or shared mappings
46141291500: system.cpu0.workload.drivers: amdkfd mmap for events(start: 0, length: 0x9000,offset: 0x8000000000000000,  )
46145925000: system.cpu0.workload.drivers: ioctl: AMDKFD_IOC_CREATE_EVENT
46145925000: system.cpu0.workload.drivers: amdkfd create events(event_id: 0x190e5fd0, offset: 0x8000000000000000)
warn: mmap: writing to shared mmap region is currently unsupported. The write succeeds on the target, but it will not be propagated to the host or shared mappings
46145984000: system.cpu0.workload.drivers: amdkfd mmap for events(start: 0, length: 0x9000,offset: 0x8000000000000000,  )
46150522000: system.cpu0.workload.drivers: ioctl: AMDKFD_IOC_CREATE_EVENT
46150522000: system.cpu0.workload.drivers: amdkfd create events(event_id: 0x190e5fd1, offset: 0x8000000000000000)
warn: mmap: writing to shared mmap region is currently unsupported. The write succeeds on the target, but it will not be propagated to the host or shared mappings
46150581000: system.cpu0.workload.drivers: amdkfd mmap for events(start: 0, length: 0x9000,offset: 0x8000000000000000,  )
46155181000: system.cpu0.workload.drivers: ioctl: AMDKFD_IOC_CREATE_EVENT
46155181000: system.cpu0.workload.drivers: amdkfd create events(event_id: 0x190e5fd2, offset: 0x8000000000000000)
warn: mmap: writing to shared mmap region is currently unsupported. The write succeeds on the target, but it will not be propagated to the host or shared mappings
46155240000: system.cpu0.workload.drivers: amdkfd mmap for events(start: 0, length: 0x9000,offset: 0x8000000000000000,  )
46159788000: system.cpu0.workload.drivers: ioctl: AMDKFD_IOC_CREATE_EVENT
46159788000: system.cpu0.workload.drivers: amdkfd create events(event_id: 0x190e5fd3, offset: 0x8000000000000000)
warn: mmap: writing to shared mmap region is currently unsupported. The write succeeds on the target, but it will not be propagated to the host or shared mappings
46159847000: system.cpu0.workload.drivers: amdkfd mmap for events(start: 0, length: 0x9000,offset: 0x8000000000000000,  )
46165048500: system.cpu0.workload.drivers: ioctl: AMDKFD_IOC_CREATE_EVENT
46165048500: system.cpu0.workload.drivers: amdkfd create events(event_id: 0x190e5fd4, offset: 0x8000000000000000)
warn: mmap: writing to shared mmap region is currently unsupported. The write succeeds on the target, but it will not be propagated to the host or shared mappings
46165107500: system.cpu0.workload.drivers: amdkfd mmap for events(start: 0, length: 0x9000,offset: 0x8000000000000000,  )
46169633000: system.cpu0.workload.drivers: ioctl: AMDKFD_IOC_CREATE_EVENT
46169633000: system.cpu0.workload.drivers: amdkfd create events(event_id: 0x190e5fd5, offset: 0x8000000000000000)
warn: mmap: writing to shared mmap region is currently unsupported. The write succeeds on the target, but it will not be propagated to the host or shared mappings
46169692000: system.cpu0.workload.drivers: amdkfd mmap for events(start: 0, length: 0x9000,offset: 0x8000000000000000,  )
46174595500: system.cpu0.workload.drivers: ioctl: AMDKFD_IOC_CREATE_EVENT
46174595500: system.cpu0.workload.drivers: amdkfd create events(event_id: 0x190e5fd6, offset: 0x8000000000000000)
warn: mmap: writing to shared mmap region is currently unsupported. The write succeeds on the target, but it will not be propagated to the host or shared mappings
46174654500: system.cpu0.workload.drivers: amdkfd mmap for events(start: 0, length: 0x9000,offset: 0x8000000000000000,  )
46178894000: system.cpu0.workload.drivers: ioctl: AMDKFD_IOC_CREATE_EVENT
46178894000: system.cpu0.workload.drivers: amdkfd create events(event_id: 0x190e5fd7, offset: 0x8000000000000000)
warn: mmap: writing to shared mmap region is currently unsupported. The write succeeds on the target, but it will not be propagated to the host or shared mappings
46178953000: system.cpu0.workload.drivers: amdkfd mmap for events(start: 0, length: 0x9000,offset: 0x8000000000000000,  )
46183921500: system.cpu0.workload.drivers: ioctl: AMDKFD_IOC_CREATE_EVENT
46183921500: system.cpu0.workload.drivers: amdkfd create events(event_id: 0x190e5fd8, offset: 0x8000000000000000)
warn: mmap: writing to shared mmap region is currently unsupported. The write succeeds on the target, but it will not be propagated to the host or shared mappings
46183980500: system.cpu0.workload.drivers: amdkfd mmap for events(start: 0, length: 0x9000,offset: 0x8000000000000000,  )
46188595000: system.cpu0.workload.drivers: ioctl: AMDKFD_IOC_CREATE_EVENT
46188595000: system.cpu0.workload.drivers: amdkfd create events(event_id: 0x190e5fd9, offset: 0x8000000000000000)
warn: mmap: writing to shared mmap region is currently unsupported. The write succeeds on the target, but it will not be propagated to the host or shared mappings
46188654000: system.cpu0.workload.drivers: amdkfd mmap for events(start: 0, length: 0x9000,offset: 0x8000000000000000,  )
46193221000: system.cpu0.workload.drivers: ioctl: AMDKFD_IOC_CREATE_EVENT
46193221000: system.cpu0.workload.drivers: amdkfd create events(event_id: 0x190e5fda, offset: 0x8000000000000000)
warn: mmap: writing to shared mmap region is currently unsupported. The write succeeds on the target, but it will not be propagated to the host or shared mappings
46193280000: system.cpu0.workload.drivers: amdkfd mmap for events(start: 0, length: 0x9000,offset: 0x8000000000000000,  )
46197694000: system.cpu0.workload.drivers: ioctl: AMDKFD_IOC_CREATE_EVENT
46197694000: system.cpu0.workload.drivers: amdkfd create events(event_id: 0x190e5fdb, offset: 0x8000000000000000)
warn: mmap: writing to shared mmap region is currently unsupported. The write succeeds on the target, but it will not be propagated to the host or shared mappings
46197753000: system.cpu0.workload.drivers: amdkfd mmap for events(start: 0, length: 0x9000,offset: 0x8000000000000000,  )
46202637000: system.cpu0.workload.drivers: ioctl: AMDKFD_IOC_CREATE_EVENT
46202637000: system.cpu0.workload.drivers: amdkfd create events(event_id: 0x190e5fdc, offset: 0x8000000000000000)
warn: mmap: writing to shared mmap region is currently unsupported. The write succeeds on the target, but it will not be propagated to the host or shared mappings
46202705000: system.cpu0.workload.drivers: amdkfd mmap for events(start: 0, length: 0x9000,offset: 0x8000000000000000,  )
46207166500: system.cpu0.workload.drivers: ioctl: AMDKFD_IOC_CREATE_EVENT
46207166500: system.cpu0.workload.drivers: amdkfd create events(event_id: 0x190e5fdd, offset: 0x8000000000000000)
warn: mmap: writing to shared mmap region is currently unsupported. The write succeeds on the target, but it will not be propagated to the host or shared mappings
46207225500: system.cpu0.workload.drivers: amdkfd mmap for events(start: 0, length: 0x9000,offset: 0x8000000000000000,  )
46212604500: system.cpu0.workload.drivers: ioctl: AMDKFD_IOC_CREATE_EVENT
46212604500: system.cpu0.workload.drivers: amdkfd create events(event_id: 0x190e5fde, offset: 0x8000000000000000)
warn: mmap: writing to shared mmap region is currently unsupported. The write succeeds on the target, but it will not be propagated to the host or shared mappings
46212663500: system.cpu0.workload.drivers: amdkfd mmap for events(start: 0, length: 0x9000,offset: 0x8000000000000000,  )
46216969000: system.cpu0.workload.drivers: ioctl: AMDKFD_IOC_CREATE_EVENT
46216969000: system.cpu0.workload.drivers: amdkfd create events(event_id: 0x190e5fdf, offset: 0x8000000000000000)
warn: mmap: writing to shared mmap region is currently unsupported. The write succeeds on the target, but it will not be propagated to the host or shared mappings
46217028000: system.cpu0.workload.drivers: amdkfd mmap for events(start: 0, length: 0x9000,offset: 0x8000000000000000,  )
46221842000: system.cpu0.workload.drivers: ioctl: AMDKFD_IOC_CREATE_EVENT
46221842000: system.cpu0.workload.drivers: amdkfd create events(event_id: 0x190e5fe0, offset: 0x8000000000000000)
warn: mmap: writing to shared mmap region is currently unsupported. The write succeeds on the target, but it will not be propagated to the host or shared mappings
46221901000: system.cpu0.workload.drivers: amdkfd mmap for events(start: 0, length: 0x9000,offset: 0x8000000000000000,  )
46226248000: system.cpu0.workload.drivers: ioctl: AMDKFD_IOC_CREATE_EVENT
46226248000: system.cpu0.workload.drivers: amdkfd create events(event_id: 0x190e5fe1, offset: 0x8000000000000000)
warn: mmap: writing to shared mmap region is currently unsupported. The write succeeds on the target, but it will not be propagated to the host or shared mappings
46226307000: system.cpu0.workload.drivers: amdkfd mmap for events(start: 0, length: 0x9000,offset: 0x8000000000000000,  )
46231058500: system.cpu0.workload.drivers: ioctl: AMDKFD_IOC_CREATE_EVENT
46231058500: system.cpu0.workload.drivers: amdkfd create events(event_id: 0x190e5fe2, offset: 0x8000000000000000)
warn: mmap: writing to shared mmap region is currently unsupported. The write succeeds on the target, but it will not be propagated to the host or shared mappings
46231117500: system.cpu0.workload.drivers: amdkfd mmap for events(start: 0, length: 0x9000,offset: 0x8000000000000000,  )
46235365500: system.cpu0.workload.drivers: ioctl: AMDKFD_IOC_CREATE_EVENT
46235365500: system.cpu0.workload.drivers: amdkfd create events(event_id: 0x190e5fe3, offset: 0x8000000000000000)
warn: mmap: writing to shared mmap region is currently unsupported. The write succeeds on the target, but it will not be propagated to the host or shared mappings
46235424500: system.cpu0.workload.drivers: amdkfd mmap for events(start: 0, length: 0x9000,offset: 0x8000000000000000,  )
46240144000: system.cpu0.workload.drivers: ioctl: AMDKFD_IOC_CREATE_EVENT
46240144000: system.cpu0.workload.drivers: amdkfd create events(event_id: 0x190e5fe4, offset: 0x8000000000000000)
warn: mmap: writing to shared mmap region is currently unsupported. The write succeeds on the target, but it will not be propagated to the host or shared mappings
46240203000: system.cpu0.workload.drivers: amdkfd mmap for events(start: 0, length: 0x9000,offset: 0x8000000000000000,  )
46244509000: system.cpu0.workload.drivers: ioctl: AMDKFD_IOC_CREATE_EVENT
46244509000: system.cpu0.workload.drivers: amdkfd create events(event_id: 0x190e5fe5, offset: 0x8000000000000000)
warn: mmap: writing to shared mmap region is currently unsupported. The write succeeds on the target, but it will not be propagated to the host or shared mappings
46244568000: system.cpu0.workload.drivers: amdkfd mmap for events(start: 0, length: 0x9000,offset: 0x8000000000000000,  )
46249296500: system.cpu0.workload.drivers: ioctl: AMDKFD_IOC_CREATE_EVENT
46249296500: system.cpu0.workload.drivers: amdkfd create events(event_id: 0x190e5fe6, offset: 0x8000000000000000)
warn: mmap: writing to shared mmap region is currently unsupported. The write succeeds on the target, but it will not be propagated to the host or shared mappings
46249355500: system.cpu0.workload.drivers: amdkfd mmap for events(start: 0, length: 0x9000,offset: 0x8000000000000000,  )
46254002500: system.cpu0.workload.drivers: ioctl: AMDKFD_IOC_CREATE_EVENT
46254002500: system.cpu0.workload.drivers: amdkfd create events(event_id: 0x190e5fe7, offset: 0x8000000000000000)
warn: mmap: writing to shared mmap region is currently unsupported. The write succeeds on the target, but it will not be propagated to the host or shared mappings
46254061500: system.cpu0.workload.drivers: amdkfd mmap for events(start: 0, length: 0x9000,offset: 0x8000000000000000,  )
46259398500: system.cpu0.workload.drivers: ioctl: AMDKFD_IOC_CREATE_EVENT
46259398500: system.cpu0.workload.drivers: amdkfd create events(event_id: 0x190e5fe8, offset: 0x8000000000000000)
warn: mmap: writing to shared mmap region is currently unsupported. The write succeeds on the target, but it will not be propagated to the host or shared mappings
46259457500: system.cpu0.workload.drivers: amdkfd mmap for events(start: 0, length: 0x9000,offset: 0x8000000000000000,  )
46263768000: system.cpu0.workload.drivers: ioctl: AMDKFD_IOC_CREATE_EVENT
46263768000: system.cpu0.workload.drivers: amdkfd create events(event_id: 0x190e5fe9, offset: 0x8000000000000000)
warn: mmap: writing to shared mmap region is currently unsupported. The write succeeds on the target, but it will not be propagated to the host or shared mappings
46263827000: system.cpu0.workload.drivers: amdkfd mmap for events(start: 0, length: 0x9000,offset: 0x8000000000000000,  )
46268419500: system.cpu0.workload.drivers: ioctl: AMDKFD_IOC_CREATE_EVENT
46268419500: system.cpu0.workload.drivers: amdkfd create events(event_id: 0x190e5fea, offset: 0x8000000000000000)
warn: mmap: writing to shared mmap region is currently unsupported. The write succeeds on the target, but it will not be propagated to the host or shared mappings
46268478500: system.cpu0.workload.drivers: amdkfd mmap for events(start: 0, length: 0x9000,offset: 0x8000000000000000,  )
46272914000: system.cpu0.workload.drivers: ioctl: AMDKFD_IOC_CREATE_EVENT
46272914000: system.cpu0.workload.drivers: amdkfd create events(event_id: 0x190e5feb, offset: 0x8000000000000000)
warn: mmap: writing to shared mmap region is currently unsupported. The write succeeds on the target, but it will not be propagated to the host or shared mappings
46272973000: system.cpu0.workload.drivers: amdkfd mmap for events(start: 0, length: 0x9000,offset: 0x8000000000000000,  )
46277484500: system.cpu0.workload.drivers: ioctl: AMDKFD_IOC_CREATE_EVENT
46277484500: system.cpu0.workload.drivers: amdkfd create events(event_id: 0x190e5fec, offset: 0x8000000000000000)
warn: mmap: writing to shared mmap region is currently unsupported. The write succeeds on the target, but it will not be propagated to the host or shared mappings
46277543500: system.cpu0.workload.drivers: amdkfd mmap for events(start: 0, length: 0x9000,offset: 0x8000000000000000,  )
46282247500: system.cpu0.workload.drivers: ioctl: AMDKFD_IOC_CREATE_EVENT
46282247500: system.cpu0.workload.drivers: amdkfd create events(event_id: 0x190e5fed, offset: 0x8000000000000000)
warn: mmap: writing to shared mmap region is currently unsupported. The write succeeds on the target, but it will not be propagated to the host or shared mappings
46282315500: system.cpu0.workload.drivers: amdkfd mmap for events(start: 0, length: 0x9000,offset: 0x8000000000000000,  )
46287054000: system.cpu0.workload.drivers: ioctl: AMDKFD_IOC_CREATE_EVENT
46287054000: system.cpu0.workload.drivers: amdkfd create events(event_id: 0x190e5fee, offset: 0x8000000000000000)
warn: mmap: writing to shared mmap region is currently unsupported. The write succeeds on the target, but it will not be propagated to the host or shared mappings
46287113000: system.cpu0.workload.drivers: amdkfd mmap for events(start: 0, length: 0x9000,offset: 0x8000000000000000,  )
46291706000: system.cpu0.workload.drivers: ioctl: AMDKFD_IOC_CREATE_EVENT
46291706000: system.cpu0.workload.drivers: amdkfd create events(event_id: 0x190e5fef, offset: 0x8000000000000000)
warn: mmap: writing to shared mmap region is currently unsupported. The write succeeds on the target, but it will not be propagated to the host or shared mappings
46291765000: system.cpu0.workload.drivers: amdkfd mmap for events(start: 0, length: 0x9000,offset: 0x8000000000000000,  )
46296273500: system.cpu0.workload.drivers: ioctl: AMDKFD_IOC_CREATE_EVENT
46296273500: system.cpu0.workload.drivers: amdkfd create events(event_id: 0x190e5ff0, offset: 0x8000000000000000)
warn: mmap: writing to shared mmap region is currently unsupported. The write succeeds on the target, but it will not be propagated to the host or shared mappings
46296332500: system.cpu0.workload.drivers: amdkfd mmap for events(start: 0, length: 0x9000,offset: 0x8000000000000000,  )
46300822500: system.cpu0.workload.drivers: ioctl: AMDKFD_IOC_CREATE_EVENT
46300822500: system.cpu0.workload.drivers: amdkfd create events(event_id: 0x190e5ff1, offset: 0x8000000000000000)
warn: mmap: writing to shared mmap region is currently unsupported. The write succeeds on the target, but it will not be propagated to the host or shared mappings
46300881500: system.cpu0.workload.drivers: amdkfd mmap for events(start: 0, length: 0x9000,offset: 0x8000000000000000,  )
46305615000: system.cpu0.workload.drivers: ioctl: AMDKFD_IOC_CREATE_EVENT
46305615000: system.cpu0.workload.drivers: amdkfd create events(event_id: 0x190e5ff2, offset: 0x8000000000000000)
warn: mmap: writing to shared mmap region is currently unsupported. The write succeeds on the target, but it will not be propagated to the host or shared mappings
46305674000: system.cpu0.workload.drivers: amdkfd mmap for events(start: 0, length: 0x9000,offset: 0x8000000000000000,  )
46310132500: system.cpu0.workload.drivers: ioctl: AMDKFD_IOC_CREATE_EVENT
46310132500: system.cpu0.workload.drivers: amdkfd create events(event_id: 0x190e5ff3, offset: 0x8000000000000000)
warn: mmap: writing to shared mmap region is currently unsupported. The write succeeds on the target, but it will not be propagated to the host or shared mappings
46310191500: system.cpu0.workload.drivers: amdkfd mmap for events(start: 0, length: 0x9000,offset: 0x8000000000000000,  )
46314813500: system.cpu0.workload.drivers: ioctl: AMDKFD_IOC_CREATE_EVENT
46314813500: system.cpu0.workload.drivers: amdkfd create events(event_id: 0x190e5ff4, offset: 0x8000000000000000)
warn: mmap: writing to shared mmap region is currently unsupported. The write succeeds on the target, but it will not be propagated to the host or shared mappings
46314872500: system.cpu0.workload.drivers: amdkfd mmap for events(start: 0, length: 0x9000,offset: 0x8000000000000000,  )
46319174000: system.cpu0.workload.drivers: ioctl: AMDKFD_IOC_CREATE_EVENT
46319174000: system.cpu0.workload.drivers: amdkfd create events(event_id: 0x190e5ff5, offset: 0x8000000000000000)
warn: mmap: writing to shared mmap region is currently unsupported. The write succeeds on the target, but it will not be propagated to the host or shared mappings
46319233000: system.cpu0.workload.drivers: amdkfd mmap for events(start: 0, length: 0x9000,offset: 0x8000000000000000,  )
46324441000: system.cpu0.workload.drivers: ioctl: AMDKFD_IOC_CREATE_EVENT
46324441000: system.cpu0.workload.drivers: amdkfd create events(event_id: 0x190e5ff6, offset: 0x8000000000000000)
warn: mmap: writing to shared mmap region is currently unsupported. The write succeeds on the target, but it will not be propagated to the host or shared mappings
46324500000: system.cpu0.workload.drivers: amdkfd mmap for events(start: 0, length: 0x9000,offset: 0x8000000000000000,  )
46328751000: system.cpu0.workload.drivers: ioctl: AMDKFD_IOC_CREATE_EVENT
46328751000: system.cpu0.workload.drivers: amdkfd create events(event_id: 0x190e5ff7, offset: 0x8000000000000000)
warn: mmap: writing to shared mmap region is currently unsupported. The write succeeds on the target, but it will not be propagated to the host or shared mappings
46328810000: system.cpu0.workload.drivers: amdkfd mmap for events(start: 0, length: 0x9000,offset: 0x8000000000000000,  )
46333855000: system.cpu0.workload.drivers: ioctl: AMDKFD_IOC_CREATE_EVENT
46333855000: system.cpu0.workload.drivers: amdkfd create events(event_id: 0x190e5ff8, offset: 0x8000000000000000)
warn: mmap: writing to shared mmap region is currently unsupported. The write succeeds on the target, but it will not be propagated to the host or shared mappings
46333914000: system.cpu0.workload.drivers: amdkfd mmap for events(start: 0, length: 0x9000,offset: 0x8000000000000000,  )
46338163000: system.cpu0.workload.drivers: ioctl: AMDKFD_IOC_CREATE_EVENT
46338163000: system.cpu0.workload.drivers: amdkfd create events(event_id: 0x190e5ff9, offset: 0x8000000000000000)
warn: mmap: writing to shared mmap region is currently unsupported. The write succeeds on the target, but it will not be propagated to the host or shared mappings
46338222000: system.cpu0.workload.drivers: amdkfd mmap for events(start: 0, length: 0x9000,offset: 0x8000000000000000,  )
46343059000: system.cpu0.workload.drivers: ioctl: AMDKFD_IOC_CREATE_EVENT
46343059000: system.cpu0.workload.drivers: amdkfd create events(event_id: 0x190e5ffa, offset: 0x8000000000000000)
warn: mmap: writing to shared mmap region is currently unsupported. The write succeeds on the target, but it will not be propagated to the host or shared mappings
46343118000: system.cpu0.workload.drivers: amdkfd mmap for events(start: 0, length: 0x9000,offset: 0x8000000000000000,  )
46347551000: system.cpu0.workload.drivers: ioctl: AMDKFD_IOC_CREATE_EVENT
46347551000: system.cpu0.workload.drivers: amdkfd create events(event_id: 0x190e5ffb, offset: 0x8000000000000000)
warn: mmap: writing to shared mmap region is currently unsupported. The write succeeds on the target, but it will not be propagated to the host or shared mappings
46347610000: system.cpu0.workload.drivers: amdkfd mmap for events(start: 0, length: 0x9000,offset: 0x8000000000000000,  )
46352106000: system.cpu0.workload.drivers: ioctl: AMDKFD_IOC_CREATE_EVENT
46352106000: system.cpu0.workload.drivers: amdkfd create events(event_id: 0x190e5ffc, offset: 0x8000000000000000)
warn: mmap: writing to shared mmap region is currently unsupported. The write succeeds on the target, but it will not be propagated to the host or shared mappings
46352165000: system.cpu0.workload.drivers: amdkfd mmap for events(start: 0, length: 0x9000,offset: 0x8000000000000000,  )
46356883500: system.cpu0.workload.drivers: ioctl: AMDKFD_IOC_CREATE_EVENT
46356883500: system.cpu0.workload.drivers: amdkfd create events(event_id: 0x190e5ffd, offset: 0x8000000000000000)
warn: mmap: writing to shared mmap region is currently unsupported. The write succeeds on the target, but it will not be propagated to the host or shared mappings
46356942500: system.cpu0.workload.drivers: amdkfd mmap for events(start: 0, length: 0x9000,offset: 0x8000000000000000,  )
46363738500: system.cpu0.workload.drivers: ioctl: AMDKFD_IOC_CREATE_EVENT
46363738500: system.cpu0.workload.drivers: amdkfd create events(event_id: 0x190e5ffe, offset: 0x8000000000000000)
warn: mmap: writing to shared mmap region is currently unsupported. The write succeeds on the target, but it will not be propagated to the host or shared mappings
46363806500: system.cpu0.workload.drivers: amdkfd mmap for events(start: 0, length: 0x9000,offset: 0x8000000000000000,  )
46368021500: system.cpu0.workload.drivers: ioctl: AMDKFD_IOC_CREATE_EVENT
46368021500: system.cpu0.workload.drivers: amdkfd create events(event_id: 0x190e5fff, offset: 0x8000000000000000)
warn: mmap: writing to shared mmap region is currently unsupported. The write succeeds on the target, but it will not be propagated to the host or shared mappings
46368080500: system.cpu0.workload.drivers: amdkfd mmap for events(start: 0, length: 0x9000,offset: 0x8000000000000000,  )
46372725000: system.cpu0.workload.drivers: ioctl: AMDKFD_IOC_CREATE_EVENT
46372725000: system.cpu0.workload.drivers: amdkfd create events(event_id: 0x190e6000, offset: 0x8000000000000000)
warn: mmap: writing to shared mmap region is currently unsupported. The write succeeds on the target, but it will not be propagated to the host or shared mappings
46372784000: system.cpu0.workload.drivers: amdkfd mmap for events(start: 0, length: 0x9000,offset: 0x8000000000000000,  )
46377333000: system.cpu0.workload.drivers: ioctl: AMDKFD_IOC_CREATE_EVENT
46377333000: system.cpu0.workload.drivers: amdkfd create events(event_id: 0x190e6001, offset: 0x8000000000000000)
warn: mmap: writing to shared mmap region is currently unsupported. The write succeeds on the target, but it will not be propagated to the host or shared mappings
46377392000: system.cpu0.workload.drivers: amdkfd mmap for events(start: 0, length: 0x9000,offset: 0x8000000000000000,  )
46381871000: system.cpu0.workload.drivers: ioctl: AMDKFD_IOC_CREATE_EVENT
46381871000: system.cpu0.workload.drivers: amdkfd create events(event_id: 0x190e6002, offset: 0x8000000000000000)
warn: mmap: writing to shared mmap region is currently unsupported. The write succeeds on the target, but it will not be propagated to the host or shared mappings
46381930000: system.cpu0.workload.drivers: amdkfd mmap for events(start: 0, length: 0x9000,offset: 0x8000000000000000,  )
46387039000: system.cpu0.workload.drivers: ioctl: AMDKFD_IOC_CREATE_EVENT
46387039000: system.cpu0.workload.drivers: amdkfd create events(event_id: 0x190e6003, offset: 0x8000000000000000)
warn: mmap: writing to shared mmap region is currently unsupported. The write succeeds on the target, but it will not be propagated to the host or shared mappings
46387098000: system.cpu0.workload.drivers: amdkfd mmap for events(start: 0, length: 0x9000,offset: 0x8000000000000000,  )
46391765000: system.cpu0.workload.drivers: ioctl: AMDKFD_IOC_CREATE_EVENT
46391765000: system.cpu0.workload.drivers: amdkfd create events(event_id: 0x190e6004, offset: 0x8000000000000000)
warn: mmap: writing to shared mmap region is currently unsupported. The write succeeds on the target, but it will not be propagated to the host or shared mappings
46391824000: system.cpu0.workload.drivers: amdkfd mmap for events(start: 0, length: 0x9000,offset: 0x8000000000000000,  )
46396200500: system.cpu0.workload.drivers: ioctl: AMDKFD_IOC_CREATE_EVENT
46396200500: system.cpu0.workload.drivers: amdkfd create events(event_id: 0x190e6005, offset: 0x8000000000000000)
warn: mmap: writing to shared mmap region is currently unsupported. The write succeeds on the target, but it will not be propagated to the host or shared mappings
46396259500: system.cpu0.workload.drivers: amdkfd mmap for events(start: 0, length: 0x9000,offset: 0x8000000000000000,  )
46401400000: system.cpu0.workload.drivers: ioctl: AMDKFD_IOC_CREATE_EVENT
46401400000: system.cpu0.workload.drivers: amdkfd create events(event_id: 0x190e6006, offset: 0x8000000000000000)
warn: mmap: writing to shared mmap region is currently unsupported. The write succeeds on the target, but it will not be propagated to the host or shared mappings
46401459000: system.cpu0.workload.drivers: amdkfd mmap for events(start: 0, length: 0x9000,offset: 0x8000000000000000,  )
46405794000: system.cpu0.workload.drivers: ioctl: AMDKFD_IOC_CREATE_EVENT
46405794000: system.cpu0.workload.drivers: amdkfd create events(event_id: 0x190e6007, offset: 0x8000000000000000)
warn: mmap: writing to shared mmap region is currently unsupported. The write succeeds on the target, but it will not be propagated to the host or shared mappings
46405853000: system.cpu0.workload.drivers: amdkfd mmap for events(start: 0, length: 0x9000,offset: 0x8000000000000000,  )
46411099500: system.cpu0.workload.drivers: ioctl: AMDKFD_IOC_CREATE_EVENT
46411099500: system.cpu0.workload.drivers: amdkfd create events(event_id: 0x190e6008, offset: 0x8000000000000000)
warn: mmap: writing to shared mmap region is currently unsupported. The write succeeds on the target, but it will not be propagated to the host or shared mappings
46411158500: system.cpu0.workload.drivers: amdkfd mmap for events(start: 0, length: 0x9000,offset: 0x8000000000000000,  )
46415473500: system.cpu0.workload.drivers: ioctl: AMDKFD_IOC_CREATE_EVENT
46415473500: system.cpu0.workload.drivers: amdkfd create events(event_id: 0x190e6009, offset: 0x8000000000000000)
warn: mmap: writing to shared mmap region is currently unsupported. The write succeeds on the target, but it will not be propagated to the host or shared mappings
46415532500: system.cpu0.workload.drivers: amdkfd mmap for events(start: 0, length: 0x9000,offset: 0x8000000000000000,  )
46420219500: system.cpu0.workload.drivers: ioctl: AMDKFD_IOC_CREATE_EVENT
46420219500: system.cpu0.workload.drivers: amdkfd create events(event_id: 0x190e600a, offset: 0x8000000000000000)
warn: mmap: writing to shared mmap region is currently unsupported. The write succeeds on the target, but it will not be propagated to the host or shared mappings
46420278500: system.cpu0.workload.drivers: amdkfd mmap for events(start: 0, length: 0x9000,offset: 0x8000000000000000,  )
46424737000: system.cpu0.workload.drivers: ioctl: AMDKFD_IOC_CREATE_EVENT
46424737000: system.cpu0.workload.drivers: amdkfd create events(event_id: 0x190e600b, offset: 0x8000000000000000)
warn: mmap: writing to shared mmap region is currently unsupported. The write succeeds on the target, but it will not be propagated to the host or shared mappings
46424796000: system.cpu0.workload.drivers: amdkfd mmap for events(start: 0, length: 0x9000,offset: 0x8000000000000000,  )
46429291500: system.cpu0.workload.drivers: ioctl: AMDKFD_IOC_CREATE_EVENT
46429291500: system.cpu0.workload.drivers: amdkfd create events(event_id: 0x190e600c, offset: 0x8000000000000000)
warn: mmap: writing to shared mmap region is currently unsupported. The write succeeds on the target, but it will not be propagated to the host or shared mappings
46429350500: system.cpu0.workload.drivers: amdkfd mmap for events(start: 0, length: 0x9000,offset: 0x8000000000000000,  )
46433695000: system.cpu0.workload.drivers: ioctl: AMDKFD_IOC_CREATE_EVENT
46433695000: system.cpu0.workload.drivers: amdkfd create events(event_id: 0x190e600d, offset: 0x8000000000000000)
warn: mmap: writing to shared mmap region is currently unsupported. The write succeeds on the target, but it will not be propagated to the host or shared mappings
46433754000: system.cpu0.workload.drivers: amdkfd mmap for events(start: 0, length: 0x9000,offset: 0x8000000000000000,  )
46438646000: system.cpu0.workload.drivers: ioctl: AMDKFD_IOC_CREATE_EVENT
46438646000: system.cpu0.workload.drivers: amdkfd create events(event_id: 0x190e600e, offset: 0x8000000000000000)
warn: mmap: writing to shared mmap region is currently unsupported. The write succeeds on the target, but it will not be propagated to the host or shared mappings
46438705000: system.cpu0.workload.drivers: amdkfd mmap for events(start: 0, length: 0x9000,offset: 0x8000000000000000,  )
46443162000: system.cpu0.workload.drivers: ioctl: AMDKFD_IOC_CREATE_EVENT
46443162000: system.cpu0.workload.drivers: amdkfd create events(event_id: 0x190e600f, offset: 0x8000000000000000)
warn: mmap: writing to shared mmap region is currently unsupported. The write succeeds on the target, but it will not be propagated to the host or shared mappings
46443230000: system.cpu0.workload.drivers: amdkfd mmap for events(start: 0, length: 0x9000,offset: 0x8000000000000000,  )
46448171000: system.cpu0.workload.drivers: ioctl: AMDKFD_IOC_CREATE_EVENT
46448171000: system.cpu0.workload.drivers: amdkfd create events(event_id: 0x190e6010, offset: 0x8000000000000000)
warn: mmap: writing to shared mmap region is currently unsupported. The write succeeds on the target, but it will not be propagated to the host or shared mappings
46448230000: system.cpu0.workload.drivers: amdkfd mmap for events(start: 0, length: 0x9000,offset: 0x8000000000000000,  )
46452699500: system.cpu0.workload.drivers: ioctl: AMDKFD_IOC_CREATE_EVENT
46452699500: system.cpu0.workload.drivers: amdkfd create events(event_id: 0x190e6011, offset: 0x8000000000000000)
warn: mmap: writing to shared mmap region is currently unsupported. The write succeeds on the target, but it will not be propagated to the host or shared mappings
46452758500: system.cpu0.workload.drivers: amdkfd mmap for events(start: 0, length: 0x9000,offset: 0x8000000000000000,  )
46457372000: system.cpu0.workload.drivers: ioctl: AMDKFD_IOC_CREATE_EVENT
46457372000: system.cpu0.workload.drivers: amdkfd create events(event_id: 0x190e6012, offset: 0x8000000000000000)
warn: mmap: writing to shared mmap region is currently unsupported. The write succeeds on the target, but it will not be propagated to the host or shared mappings
46457431000: system.cpu0.workload.drivers: amdkfd mmap for events(start: 0, length: 0x9000,offset: 0x8000000000000000,  )
46461841000: system.cpu0.workload.drivers: ioctl: AMDKFD_IOC_CREATE_EVENT
46461841000: system.cpu0.workload.drivers: amdkfd create events(event_id: 0x190e6013, offset: 0x8000000000000000)
warn: mmap: writing to shared mmap region is currently unsupported. The write succeeds on the target, but it will not be propagated to the host or shared mappings
46461900000: system.cpu0.workload.drivers: amdkfd mmap for events(start: 0, length: 0x9000,offset: 0x8000000000000000,  )
46466462500: system.cpu0.workload.drivers: ioctl: AMDKFD_IOC_CREATE_EVENT
46466462500: system.cpu0.workload.drivers: amdkfd create events(event_id: 0x190e6014, offset: 0x8000000000000000)
warn: mmap: writing to shared mmap region is currently unsupported. The write succeeds on the target, but it will not be propagated to the host or shared mappings
46466521500: system.cpu0.workload.drivers: amdkfd mmap for events(start: 0, length: 0x9000,offset: 0x8000000000000000,  )
46471280500: system.cpu0.workload.drivers: ioctl: AMDKFD_IOC_CREATE_EVENT
46471280500: system.cpu0.workload.drivers: amdkfd create events(event_id: 0x190e6015, offset: 0x8000000000000000)
warn: mmap: writing to shared mmap region is currently unsupported. The write succeeds on the target, but it will not be propagated to the host or shared mappings
46471339500: system.cpu0.workload.drivers: amdkfd mmap for events(start: 0, length: 0x9000,offset: 0x8000000000000000,  )
46476502500: system.cpu0.workload.drivers: ioctl: AMDKFD_IOC_CREATE_EVENT
46476502500: system.cpu0.workload.drivers: amdkfd create events(event_id: 0x190e6016, offset: 0x8000000000000000)
warn: mmap: writing to shared mmap region is currently unsupported. The write succeeds on the target, but it will not be propagated to the host or shared mappings
46476561500: system.cpu0.workload.drivers: amdkfd mmap for events(start: 0, length: 0x9000,offset: 0x8000000000000000,  )
46480955000: system.cpu0.workload.drivers: ioctl: AMDKFD_IOC_CREATE_EVENT
46480955000: system.cpu0.workload.drivers: amdkfd create events(event_id: 0x190e6017, offset: 0x8000000000000000)
warn: mmap: writing to shared mmap region is currently unsupported. The write succeeds on the target, but it will not be propagated to the host or shared mappings
46481014000: system.cpu0.workload.drivers: amdkfd mmap for events(start: 0, length: 0x9000,offset: 0x8000000000000000,  )
46486139500: system.cpu0.workload.drivers: ioctl: AMDKFD_IOC_CREATE_EVENT
46486139500: system.cpu0.workload.drivers: amdkfd create events(event_id: 0x190e6018, offset: 0x8000000000000000)
warn: mmap: writing to shared mmap region is currently unsupported. The write succeeds on the target, but it will not be propagated to the host or shared mappings
46486198500: system.cpu0.workload.drivers: amdkfd mmap for events(start: 0, length: 0x9000,offset: 0x8000000000000000,  )
46490832000: system.cpu0.workload.drivers: ioctl: AMDKFD_IOC_CREATE_EVENT
46490832000: system.cpu0.workload.drivers: amdkfd create events(event_id: 0x190e6019, offset: 0x8000000000000000)
warn: mmap: writing to shared mmap region is currently unsupported. The write succeeds on the target, but it will not be propagated to the host or shared mappings
46490891000: system.cpu0.workload.drivers: amdkfd mmap for events(start: 0, length: 0x9000,offset: 0x8000000000000000,  )
46495458000: system.cpu0.workload.drivers: ioctl: AMDKFD_IOC_CREATE_EVENT
46495458000: system.cpu0.workload.drivers: amdkfd create events(event_id: 0x190e601a, offset: 0x8000000000000000)
warn: mmap: writing to shared mmap region is currently unsupported. The write succeeds on the target, but it will not be propagated to the host or shared mappings
46495517000: system.cpu0.workload.drivers: amdkfd mmap for events(start: 0, length: 0x9000,offset: 0x8000000000000000,  )
46499880500: system.cpu0.workload.drivers: ioctl: AMDKFD_IOC_CREATE_EVENT
46499880500: system.cpu0.workload.drivers: amdkfd create events(event_id: 0x190e601b, offset: 0x8000000000000000)
warn: mmap: writing to shared mmap region is currently unsupported. The write succeeds on the target, but it will not be propagated to the host or shared mappings
46499939500: system.cpu0.workload.drivers: amdkfd mmap for events(start: 0, length: 0x9000,offset: 0x8000000000000000,  )
46504739000: system.cpu0.workload.drivers: ioctl: AMDKFD_IOC_CREATE_EVENT
46504739000: system.cpu0.workload.drivers: amdkfd create events(event_id: 0x190e601c, offset: 0x8000000000000000)
warn: mmap: writing to shared mmap region is currently unsupported. The write succeeds on the target, but it will not be propagated to the host or shared mappings
46504798000: system.cpu0.workload.drivers: amdkfd mmap for events(start: 0, length: 0x9000,offset: 0x8000000000000000,  )
46509366500: system.cpu0.workload.drivers: ioctl: AMDKFD_IOC_CREATE_EVENT
46509366500: system.cpu0.workload.drivers: amdkfd create events(event_id: 0x190e601d, offset: 0x8000000000000000)
warn: mmap: writing to shared mmap region is currently unsupported. The write succeeds on the target, but it will not be propagated to the host or shared mappings
46509425500: system.cpu0.workload.drivers: amdkfd mmap for events(start: 0, length: 0x9000,offset: 0x8000000000000000,  )
46514059500: system.cpu0.workload.drivers: ioctl: AMDKFD_IOC_CREATE_EVENT
46514059500: system.cpu0.workload.drivers: amdkfd create events(event_id: 0x190e601e, offset: 0x8000000000000000)
warn: mmap: writing to shared mmap region is currently unsupported. The write succeeds on the target, but it will not be propagated to the host or shared mappings
46514118500: system.cpu0.workload.drivers: amdkfd mmap for events(start: 0, length: 0x9000,offset: 0x8000000000000000,  )
46518456500: system.cpu0.workload.drivers: ioctl: AMDKFD_IOC_CREATE_EVENT
46518456500: system.cpu0.workload.drivers: amdkfd create events(event_id: 0x190e601f, offset: 0x8000000000000000)
warn: mmap: writing to shared mmap region is currently unsupported. The write succeeds on the target, but it will not be propagated to the host or shared mappings
46518515500: system.cpu0.workload.drivers: amdkfd mmap for events(start: 0, length: 0x9000,offset: 0x8000000000000000,  )
46523451500: system.cpu0.workload.drivers: ioctl: AMDKFD_IOC_CREATE_EVENT
46523451500: system.cpu0.workload.drivers: amdkfd create events(event_id: 0x190e6020, offset: 0x8000000000000000)
warn: mmap: writing to shared mmap region is currently unsupported. The write succeeds on the target, but it will not be propagated to the host or shared mappings
46523519500: system.cpu0.workload.drivers: amdkfd mmap for events(start: 0, length: 0x9000,offset: 0x8000000000000000,  )
46527806000: system.cpu0.workload.drivers: ioctl: AMDKFD_IOC_CREATE_EVENT
46527806000: system.cpu0.workload.drivers: amdkfd create events(event_id: 0x190e6021, offset: 0x8000000000000000)
warn: mmap: writing to shared mmap region is currently unsupported. The write succeeds on the target, but it will not be propagated to the host or shared mappings
46527865000: system.cpu0.workload.drivers: amdkfd mmap for events(start: 0, length: 0x9000,offset: 0x8000000000000000,  )
46532410000: system.cpu0.workload.drivers: ioctl: AMDKFD_IOC_CREATE_EVENT
46532410000: system.cpu0.workload.drivers: amdkfd create events(event_id: 0x190e6022, offset: 0x8000000000000000)
warn: mmap: writing to shared mmap region is currently unsupported. The write succeeds on the target, but it will not be propagated to the host or shared mappings
46532469000: system.cpu0.workload.drivers: amdkfd mmap for events(start: 0, length: 0x9000,offset: 0x8000000000000000,  )
46536714000: system.cpu0.workload.drivers: ioctl: AMDKFD_IOC_CREATE_EVENT
46536714000: system.cpu0.workload.drivers: amdkfd create events(event_id: 0x190e6023, offset: 0x8000000000000000)
warn: mmap: writing to shared mmap region is currently unsupported. The write succeeds on the target, but it will not be propagated to the host or shared mappings
46536773000: system.cpu0.workload.drivers: amdkfd mmap for events(start: 0, length: 0x9000,offset: 0x8000000000000000,  )
46542110000: system.cpu0.workload.drivers: ioctl: AMDKFD_IOC_CREATE_EVENT
46542110000: system.cpu0.workload.drivers: amdkfd create events(event_id: 0x190e6024, offset: 0x8000000000000000)
warn: mmap: writing to shared mmap region is currently unsupported. The write succeeds on the target, but it will not be propagated to the host or shared mappings
46542169000: system.cpu0.workload.drivers: amdkfd mmap for events(start: 0, length: 0x9000,offset: 0x8000000000000000,  )
46546457000: system.cpu0.workload.drivers: ioctl: AMDKFD_IOC_CREATE_EVENT
46546457000: system.cpu0.workload.drivers: amdkfd create events(event_id: 0x190e6025, offset: 0x8000000000000000)
warn: mmap: writing to shared mmap region is currently unsupported. The write succeeds on the target, but it will not be propagated to the host or shared mappings
46546516000: system.cpu0.workload.drivers: amdkfd mmap for events(start: 0, length: 0x9000,offset: 0x8000000000000000,  )
46551177500: system.cpu0.workload.drivers: ioctl: AMDKFD_IOC_CREATE_EVENT
46551177500: system.cpu0.workload.drivers: amdkfd create events(event_id: 0x190e6026, offset: 0x8000000000000000)
warn: mmap: writing to shared mmap region is currently unsupported. The write succeeds on the target, but it will not be propagated to the host or shared mappings
46551236500: system.cpu0.workload.drivers: amdkfd mmap for events(start: 0, length: 0x9000,offset: 0x8000000000000000,  )
46555733500: system.cpu0.workload.drivers: ioctl: AMDKFD_IOC_CREATE_EVENT
46555733500: system.cpu0.workload.drivers: amdkfd create events(event_id: 0x190e6027, offset: 0x8000000000000000)
warn: mmap: writing to shared mmap region is currently unsupported. The write succeeds on the target, but it will not be propagated to the host or shared mappings
46555792500: system.cpu0.workload.drivers: amdkfd mmap for events(start: 0, length: 0x9000,offset: 0x8000000000000000,  )
46560638000: system.cpu0.workload.drivers: ioctl: AMDKFD_IOC_CREATE_EVENT
46560638000: system.cpu0.workload.drivers: amdkfd create events(event_id: 0x190e6028, offset: 0x8000000000000000)
warn: mmap: writing to shared mmap region is currently unsupported. The write succeeds on the target, but it will not be propagated to the host or shared mappings
46560697000: system.cpu0.workload.drivers: amdkfd mmap for events(start: 0, length: 0x9000,offset: 0x8000000000000000,  )
46565248500: system.cpu0.workload.drivers: ioctl: AMDKFD_IOC_CREATE_EVENT
46565248500: system.cpu0.workload.drivers: amdkfd create events(event_id: 0x190e6029, offset: 0x8000000000000000)
warn: mmap: writing to shared mmap region is currently unsupported. The write succeeds on the target, but it will not be propagated to the host or shared mappings
46565307500: system.cpu0.workload.drivers: amdkfd mmap for events(start: 0, length: 0x9000,offset: 0x8000000000000000,  )
46569879000: system.cpu0.workload.drivers: ioctl: AMDKFD_IOC_CREATE_EVENT
46569879000: system.cpu0.workload.drivers: amdkfd create events(event_id: 0x190e602a, offset: 0x8000000000000000)
warn: mmap: writing to shared mmap region is currently unsupported. The write succeeds on the target, but it will not be propagated to the host or shared mappings
46569938000: system.cpu0.workload.drivers: amdkfd mmap for events(start: 0, length: 0x9000,offset: 0x8000000000000000,  )
46574375000: system.cpu0.workload.drivers: ioctl: AMDKFD_IOC_CREATE_EVENT
46574375000: system.cpu0.workload.drivers: amdkfd create events(event_id: 0x190e602b, offset: 0x8000000000000000)
warn: mmap: writing to shared mmap region is currently unsupported. The write succeeds on the target, but it will not be propagated to the host or shared mappings
46574434000: system.cpu0.workload.drivers: amdkfd mmap for events(start: 0, length: 0x9000,offset: 0x8000000000000000,  )
46579030000: system.cpu0.workload.drivers: ioctl: AMDKFD_IOC_CREATE_EVENT
46579030000: system.cpu0.workload.drivers: amdkfd create events(event_id: 0x190e602c, offset: 0x8000000000000000)
warn: mmap: writing to shared mmap region is currently unsupported. The write succeeds on the target, but it will not be propagated to the host or shared mappings
46579089000: system.cpu0.workload.drivers: amdkfd mmap for events(start: 0, length: 0x9000,offset: 0x8000000000000000,  )
46583350500: system.cpu0.workload.drivers: ioctl: AMDKFD_IOC_CREATE_EVENT
46583350500: system.cpu0.workload.drivers: amdkfd create events(event_id: 0x190e602d, offset: 0x8000000000000000)
warn: mmap: writing to shared mmap region is currently unsupported. The write succeeds on the target, but it will not be propagated to the host or shared mappings
46583409500: system.cpu0.workload.drivers: amdkfd mmap for events(start: 0, length: 0x9000,offset: 0x8000000000000000,  )
46587954000: system.cpu0.workload.drivers: ioctl: AMDKFD_IOC_CREATE_EVENT
46587954000: system.cpu0.workload.drivers: amdkfd create events(event_id: 0x190e602e, offset: 0x8000000000000000)
warn: mmap: writing to shared mmap region is currently unsupported. The write succeeds on the target, but it will not be propagated to the host or shared mappings
46588013000: system.cpu0.workload.drivers: amdkfd mmap for events(start: 0, length: 0x9000,offset: 0x8000000000000000,  )
46592677500: system.cpu0.workload.drivers: ioctl: AMDKFD_IOC_CREATE_EVENT
46592677500: system.cpu0.workload.drivers: amdkfd create events(event_id: 0x190e602f, offset: 0x8000000000000000)
warn: mmap: writing to shared mmap region is currently unsupported. The write succeeds on the target, but it will not be propagated to the host or shared mappings
46592736500: system.cpu0.workload.drivers: amdkfd mmap for events(start: 0, length: 0x9000,offset: 0x8000000000000000,  )
46597471000: system.cpu0.workload.drivers: ioctl: AMDKFD_IOC_CREATE_EVENT
46597471000: system.cpu0.workload.drivers: amdkfd create events(event_id: 0x190e6030, offset: 0x8000000000000000)
warn: mmap: writing to shared mmap region is currently unsupported. The write succeeds on the target, but it will not be propagated to the host or shared mappings
46597530000: system.cpu0.workload.drivers: amdkfd mmap for events(start: 0, length: 0x9000,offset: 0x8000000000000000,  )
46602391500: system.cpu0.workload.drivers: ioctl: AMDKFD_IOC_CREATE_EVENT
46602391500: system.cpu0.workload.drivers: amdkfd create events(event_id: 0x190e6031, offset: 0x8000000000000000)
warn: mmap: writing to shared mmap region is currently unsupported. The write succeeds on the target, but it will not be propagated to the host or shared mappings
46602459500: system.cpu0.workload.drivers: amdkfd mmap for events(start: 0, length: 0x9000,offset: 0x8000000000000000,  )
46607202000: system.cpu0.workload.drivers: ioctl: AMDKFD_IOC_CREATE_EVENT
46607202000: system.cpu0.workload.drivers: amdkfd create events(event_id: 0x190e6032, offset: 0x8000000000000000)
warn: mmap: writing to shared mmap region is currently unsupported. The write succeeds on the target, but it will not be propagated to the host or shared mappings
46607261000: system.cpu0.workload.drivers: amdkfd mmap for events(start: 0, length: 0x9000,offset: 0x8000000000000000,  )
46611962000: system.cpu0.workload.drivers: ioctl: AMDKFD_IOC_CREATE_EVENT
46611962000: system.cpu0.workload.drivers: amdkfd create events(event_id: 0x190e6033, offset: 0x8000000000000000)
warn: mmap: writing to shared mmap region is currently unsupported. The write succeeds on the target, but it will not be propagated to the host or shared mappings
46612021000: system.cpu0.workload.drivers: amdkfd mmap for events(start: 0, length: 0x9000,offset: 0x8000000000000000,  )
46616583500: system.cpu0.workload.drivers: ioctl: AMDKFD_IOC_CREATE_EVENT
46616583500: system.cpu0.workload.drivers: amdkfd create events(event_id: 0x190e6034, offset: 0x8000000000000000)
warn: mmap: writing to shared mmap region is currently unsupported. The write succeeds on the target, but it will not be propagated to the host or shared mappings
46616642500: system.cpu0.workload.drivers: amdkfd mmap for events(start: 0, length: 0x9000,offset: 0x8000000000000000,  )
46620957500: system.cpu0.workload.drivers: ioctl: AMDKFD_IOC_CREATE_EVENT
46620957500: system.cpu0.workload.drivers: amdkfd create events(event_id: 0x190e6035, offset: 0x8000000000000000)
warn: mmap: writing to shared mmap region is currently unsupported. The write succeeds on the target, but it will not be propagated to the host or shared mappings
46621016500: system.cpu0.workload.drivers: amdkfd mmap for events(start: 0, length: 0x9000,offset: 0x8000000000000000,  )
46626042500: system.cpu0.workload.drivers: ioctl: AMDKFD_IOC_CREATE_EVENT
46626042500: system.cpu0.workload.drivers: amdkfd create events(event_id: 0x190e6036, offset: 0x8000000000000000)
warn: mmap: writing to shared mmap region is currently unsupported. The write succeeds on the target, but it will not be propagated to the host or shared mappings
46626101500: system.cpu0.workload.drivers: amdkfd mmap for events(start: 0, length: 0x9000,offset: 0x8000000000000000,  )
46630452000: system.cpu0.workload.drivers: ioctl: AMDKFD_IOC_CREATE_EVENT
46630452000: system.cpu0.workload.drivers: amdkfd create events(event_id: 0x190e6037, offset: 0x8000000000000000)
warn: mmap: writing to shared mmap region is currently unsupported. The write succeeds on the target, but it will not be propagated to the host or shared mappings
46630511000: system.cpu0.workload.drivers: amdkfd mmap for events(start: 0, length: 0x9000,offset: 0x8000000000000000,  )
46635230500: system.cpu0.workload.drivers: ioctl: AMDKFD_IOC_CREATE_EVENT
46635230500: system.cpu0.workload.drivers: amdkfd create events(event_id: 0x190e6038, offset: 0x8000000000000000)
warn: mmap: writing to shared mmap region is currently unsupported. The write succeeds on the target, but it will not be propagated to the host or shared mappings
46635289500: system.cpu0.workload.drivers: amdkfd mmap for events(start: 0, length: 0x9000,offset: 0x8000000000000000,  )
46639621500: system.cpu0.workload.drivers: ioctl: AMDKFD_IOC_CREATE_EVENT
46639621500: system.cpu0.workload.drivers: amdkfd create events(event_id: 0x190e6039, offset: 0x8000000000000000)
warn: mmap: writing to shared mmap region is currently unsupported. The write succeeds on the target, but it will not be propagated to the host or shared mappings
46639680500: system.cpu0.workload.drivers: amdkfd mmap for events(start: 0, length: 0x9000,offset: 0x8000000000000000,  )
46644839500: system.cpu0.workload.drivers: ioctl: AMDKFD_IOC_CREATE_EVENT
46644839500: system.cpu0.workload.drivers: amdkfd create events(event_id: 0x190e603a, offset: 0x8000000000000000)
warn: mmap: writing to shared mmap region is currently unsupported. The write succeeds on the target, but it will not be propagated to the host or shared mappings
46644898500: system.cpu0.workload.drivers: amdkfd mmap for events(start: 0, length: 0x9000,offset: 0x8000000000000000,  )
46649553500: system.cpu0.workload.drivers: ioctl: AMDKFD_IOC_CREATE_EVENT
46649553500: system.cpu0.workload.drivers: amdkfd create events(event_id: 0x190e603b, offset: 0x8000000000000000)
warn: mmap: writing to shared mmap region is currently unsupported. The write succeeds on the target, but it will not be propagated to the host or shared mappings
46649612500: system.cpu0.workload.drivers: amdkfd mmap for events(start: 0, length: 0x9000,offset: 0x8000000000000000,  )
46654126500: system.cpu0.workload.drivers: ioctl: AMDKFD_IOC_CREATE_EVENT
46654126500: system.cpu0.workload.drivers: amdkfd create events(event_id: 0x190e603c, offset: 0x8000000000000000)
warn: mmap: writing to shared mmap region is currently unsupported. The write succeeds on the target, but it will not be propagated to the host or shared mappings
46654185500: system.cpu0.workload.drivers: amdkfd mmap for events(start: 0, length: 0x9000,offset: 0x8000000000000000,  )
46658686000: system.cpu0.workload.drivers: ioctl: AMDKFD_IOC_CREATE_EVENT
46658686000: system.cpu0.workload.drivers: amdkfd create events(event_id: 0x190e603d, offset: 0x8000000000000000)
warn: mmap: writing to shared mmap region is currently unsupported. The write succeeds on the target, but it will not be propagated to the host or shared mappings
46658745000: system.cpu0.workload.drivers: amdkfd mmap for events(start: 0, length: 0x9000,offset: 0x8000000000000000,  )
46667050000: system.cpu0.workload.drivers: ioctl: AMDKFD_IOC_CREATE_EVENT
46667050000: system.cpu0.workload.drivers: amdkfd create events(event_id: 0x190e603e, offset: 0x8000000000000000)
warn: mmap: writing to shared mmap region is currently unsupported. The write succeeds on the target, but it will not be propagated to the host or shared mappings
46667109000: system.cpu0.workload.drivers: amdkfd mmap for events(start: 0, length: 0x9000,offset: 0x8000000000000000,  )
46671198000: system.cpu0.workload.drivers: ioctl: AMDKFD_IOC_CREATE_EVENT
46671198000: system.cpu0.workload.drivers: amdkfd create events(event_id: 0x190e603f, offset: 0x8000000000000000)
warn: mmap: writing to shared mmap region is currently unsupported. The write succeeds on the target, but it will not be propagated to the host or shared mappings
46671257000: system.cpu0.workload.drivers: amdkfd mmap for events(start: 0, length: 0x9000,offset: 0x8000000000000000,  )
46676141000: system.cpu0.workload.drivers: ioctl: AMDKFD_IOC_CREATE_EVENT
46676141000: system.cpu0.workload.drivers: amdkfd create events(event_id: 0x190e6040, offset: 0x8000000000000000)
warn: mmap: writing to shared mmap region is currently unsupported. The write succeeds on the target, but it will not be propagated to the host or shared mappings
46676200000: system.cpu0.workload.drivers: amdkfd mmap for events(start: 0, length: 0x9000,offset: 0x8000000000000000,  )
46679827000: system.cpu0.workload.drivers: ioctl: AMDKFD_IOC_CREATE_EVENT
46679827000: system.cpu0.workload.drivers: amdkfd create events(event_id: 0x190e6041, offset: 0x8000000000000000)
warn: mmap: writing to shared mmap region is currently unsupported. The write succeeds on the target, but it will not be propagated to the host or shared mappings
46679886000: system.cpu0.workload.drivers: amdkfd mmap for events(start: 0, length: 0x9000,offset: 0x8000000000000000,  )
46683967000: system.cpu0.workload.drivers: ioctl: AMDKFD_IOC_CREATE_EVENT
46683967000: system.cpu0.workload.drivers: amdkfd create events(event_id: 0x190e6042, offset: 0x8000000000000000)
warn: mmap: writing to shared mmap region is currently unsupported. The write succeeds on the target, but it will not be propagated to the host or shared mappings
46684035000: system.cpu0.workload.drivers: amdkfd mmap for events(start: 0, length: 0x9000,offset: 0x8000000000000000,  )
46688669000: system.cpu0.workload.drivers: ioctl: AMDKFD_IOC_CREATE_EVENT
46688669000: system.cpu0.workload.drivers: amdkfd create events(event_id: 0x190e6043, offset: 0x8000000000000000)
warn: mmap: writing to shared mmap region is currently unsupported. The write succeeds on the target, but it will not be propagated to the host or shared mappings
46688728000: system.cpu0.workload.drivers: amdkfd mmap for events(start: 0, length: 0x9000,offset: 0x8000000000000000,  )
46693407000: system.cpu0.workload.drivers: ioctl: AMDKFD_IOC_CREATE_EVENT
46693407000: system.cpu0.workload.drivers: amdkfd create events(event_id: 0x190e6044, offset: 0x8000000000000000)
warn: mmap: writing to shared mmap region is currently unsupported. The write succeeds on the target, but it will not be propagated to the host or shared mappings
46693466000: system.cpu0.workload.drivers: amdkfd mmap for events(start: 0, length: 0x9000,offset: 0x8000000000000000,  )
46697759500: system.cpu0.workload.drivers: ioctl: AMDKFD_IOC_CREATE_EVENT
46697759500: system.cpu0.workload.drivers: amdkfd create events(event_id: 0x190e6045, offset: 0x8000000000000000)
warn: mmap: writing to shared mmap region is currently unsupported. The write succeeds on the target, but it will not be propagated to the host or shared mappings
46697818500: system.cpu0.workload.drivers: amdkfd mmap for events(start: 0, length: 0x9000,offset: 0x8000000000000000,  )
46702530000: system.cpu0.workload.drivers: ioctl: AMDKFD_IOC_CREATE_EVENT
46702530000: system.cpu0.workload.drivers: amdkfd create events(event_id: 0x190e6046, offset: 0x8000000000000000)
warn: mmap: writing to shared mmap region is currently unsupported. The write succeeds on the target, but it will not be propagated to the host or shared mappings
[...]
94081466500: system.cpu0.workload.drivers: ioctl: AMDKFD_IOC_DESTROY_EVENT
94081466500: system.cpu0.workload.drivers: amdkfd destroying event 420372794
94084667500: system.cpu0.workload.drivers: ioctl: AMDKFD_IOC_DESTROY_EVENT
94084667500: system.cpu0.workload.drivers: amdkfd destroying event 420372795
94089172000: system.cpu0.workload.drivers: ioctl: AMDKFD_IOC_DESTROY_EVENT
94089172000: system.cpu0.workload.drivers: amdkfd destroying event 420372796
94092160500: system.cpu0.workload.drivers: ioctl: AMDKFD_IOC_DESTROY_EVENT
94092160500: system.cpu0.workload.drivers: amdkfd destroying event 420372797
94095223000: system.cpu0.workload.drivers: ioctl: AMDKFD_IOC_DESTROY_EVENT
94095223000: system.cpu0.workload.drivers: amdkfd destroying event 420372798
94098312000: system.cpu0.workload.drivers: ioctl: AMDKFD_IOC_DESTROY_EVENT
94098312000: system.cpu0.workload.drivers: amdkfd destroying event 420372799
94101734500: system.cpu0.workload.drivers: ioctl: AMDKFD_IOC_DESTROY_EVENT
94101734500: system.cpu0.workload.drivers: amdkfd destroying event 420372800
94104743000: system.cpu0.workload.drivers: ioctl: AMDKFD_IOC_DESTROY_EVENT
94104743000: system.cpu0.workload.drivers: amdkfd destroying event 420372801
94108406000: system.cpu0.workload.drivers: ioctl: AMDKFD_IOC_DESTROY_EVENT
94108406000: system.cpu0.workload.drivers: amdkfd destroying event 420372802
94111434000: system.cpu0.workload.drivers: ioctl: AMDKFD_IOC_DESTROY_EVENT
94111434000: system.cpu0.workload.drivers: amdkfd destroying event 420372803
94114959500: system.cpu0.workload.drivers: ioctl: AMDKFD_IOC_DESTROY_EVENT
94114959500: system.cpu0.workload.drivers: amdkfd destroying event 420372804
94117988500: system.cpu0.workload.drivers: ioctl: AMDKFD_IOC_DESTROY_EVENT
94117988500: system.cpu0.workload.drivers: amdkfd destroying event 420372805
94121256500: system.cpu0.workload.drivers: ioctl: AMDKFD_IOC_DESTROY_EVENT
94121256500: system.cpu0.workload.drivers: amdkfd destroying event 420372806
94124133000: system.cpu0.workload.drivers: ioctl: AMDKFD_IOC_DESTROY_EVENT
94124133000: system.cpu0.workload.drivers: amdkfd destroying event 420372807
94127343000: system.cpu0.workload.drivers: ioctl: AMDKFD_IOC_DESTROY_EVENT
94127343000: system.cpu0.workload.drivers: amdkfd destroying event 420372808
94130329000: system.cpu0.workload.drivers: ioctl: AMDKFD_IOC_DESTROY_EVENT
94130329000: system.cpu0.workload.drivers: amdkfd destroying event 420372809
94133924000: system.cpu0.workload.drivers: ioctl: AMDKFD_IOC_DESTROY_EVENT
94133924000: system.cpu0.workload.drivers: amdkfd destroying event 420372810
94136884000: system.cpu0.workload.drivers: ioctl: AMDKFD_IOC_DESTROY_EVENT
94136884000: system.cpu0.workload.drivers: amdkfd destroying event 420372811
94140528000: system.cpu0.workload.drivers: ioctl: AMDKFD_IOC_DESTROY_EVENT
94140528000: system.cpu0.workload.drivers: amdkfd destroying event 420372812
94143346000: system.cpu0.workload.drivers: ioctl: AMDKFD_IOC_DESTROY_EVENT
94143346000: system.cpu0.workload.drivers: amdkfd destroying event 420372813
94146347000: system.cpu0.workload.drivers: ioctl: AMDKFD_IOC_DESTROY_EVENT
94146347000: system.cpu0.workload.drivers: amdkfd destroying event 420372814
94149304500: system.cpu0.workload.drivers: ioctl: AMDKFD_IOC_DESTROY_EVENT
94149304500: system.cpu0.workload.drivers: amdkfd destroying event 420372815
94152578500: system.cpu0.workload.drivers: ioctl: AMDKFD_IOC_DESTROY_EVENT
94152578500: system.cpu0.workload.drivers: amdkfd destroying event 420372816
94155469500: system.cpu0.workload.drivers: ioctl: AMDKFD_IOC_DESTROY_EVENT
94155469500: system.cpu0.workload.drivers: amdkfd destroying event 420372817
94158358000: system.cpu0.workload.drivers: ioctl: AMDKFD_IOC_DESTROY_EVENT
94158358000: system.cpu0.workload.drivers: amdkfd destroying event 420372818
94161419000: system.cpu0.workload.drivers: ioctl: AMDKFD_IOC_DESTROY_EVENT
94161419000: system.cpu0.workload.drivers: amdkfd destroying event 420372819
94164608500: system.cpu0.workload.drivers: ioctl: AMDKFD_IOC_DESTROY_EVENT
94164608500: system.cpu0.workload.drivers: amdkfd destroying event 420372820
94167318000: system.cpu0.workload.drivers: ioctl: AMDKFD_IOC_DESTROY_EVENT
94167318000: system.cpu0.workload.drivers: amdkfd destroying event 420372821
94170083000: system.cpu0.workload.drivers: ioctl: AMDKFD_IOC_DESTROY_EVENT
94170083000: system.cpu0.workload.drivers: amdkfd destroying event 420372822
94172840000: system.cpu0.workload.drivers: ioctl: AMDKFD_IOC_DESTROY_EVENT
94172840000: system.cpu0.workload.drivers: amdkfd destroying event 420372823
94175848000: system.cpu0.workload.drivers: ioctl: AMDKFD_IOC_DESTROY_EVENT
94175848000: system.cpu0.workload.drivers: amdkfd destroying event 420372824
94178564000: system.cpu0.workload.drivers: ioctl: AMDKFD_IOC_DESTROY_EVENT
94178564000: system.cpu0.workload.drivers: amdkfd destroying event 420372825
94181843500: system.cpu0.workload.drivers: ioctl: AMDKFD_IOC_DESTROY_EVENT
94181843500: system.cpu0.workload.drivers: amdkfd destroying event 420372826
94184772500: system.cpu0.workload.drivers: ioctl: AMDKFD_IOC_DESTROY_EVENT
94184772500: system.cpu0.workload.drivers: amdkfd destroying event 420372827
94189119000: system.cpu0.workload.drivers: ioctl: AMDKFD_IOC_DESTROY_EVENT
94189119000: system.cpu0.workload.drivers: amdkfd destroying event 420372828
94191763500: system.cpu0.workload.drivers: ioctl: AMDKFD_IOC_DESTROY_EVENT
94191763500: system.cpu0.workload.drivers: amdkfd destroying event 420372829
94194428000: system.cpu0.workload.drivers: ioctl: AMDKFD_IOC_DESTROY_EVENT
94194428000: system.cpu0.workload.drivers: amdkfd destroying event 420372830
94197137000: system.cpu0.workload.drivers: ioctl: AMDKFD_IOC_DESTROY_EVENT
94197137000: system.cpu0.workload.drivers: amdkfd destroying event 420372831
94200134500: system.cpu0.workload.drivers: ioctl: AMDKFD_IOC_DESTROY_EVENT
94200134500: system.cpu0.workload.drivers: amdkfd destroying event 420372832
94202709000: system.cpu0.workload.drivers: ioctl: AMDKFD_IOC_DESTROY_EVENT
94202709000: system.cpu0.workload.drivers: amdkfd destroying event 420372833
94205312500: system.cpu0.workload.drivers: ioctl: AMDKFD_IOC_DESTROY_EVENT
94205312500: system.cpu0.workload.drivers: amdkfd destroying event 420372834
94208060000: system.cpu0.workload.drivers: ioctl: AMDKFD_IOC_DESTROY_EVENT
94208060000: system.cpu0.workload.drivers: amdkfd destroying event 420372835
94211170000: system.cpu0.workload.drivers: ioctl: AMDKFD_IOC_DESTROY_EVENT
94211170000: system.cpu0.workload.drivers: amdkfd destroying event 420372836
94213813000: system.cpu0.workload.drivers: ioctl: AMDKFD_IOC_DESTROY_EVENT
94213813000: system.cpu0.workload.drivers: amdkfd destroying event 420372837
94216521500: system.cpu0.workload.drivers: ioctl: AMDKFD_IOC_DESTROY_EVENT
94216521500: system.cpu0.workload.drivers: amdkfd destroying event 420372838
94219092500: system.cpu0.workload.drivers: ioctl: AMDKFD_IOC_DESTROY_EVENT
94219092500: system.cpu0.workload.drivers: amdkfd destroying event 420372839
94221931500: system.cpu0.workload.drivers: ioctl: AMDKFD_IOC_DESTROY_EVENT
94221931500: system.cpu0.workload.drivers: amdkfd destroying event 420372840
94225117500: system.cpu0.workload.drivers: ioctl: AMDKFD_IOC_DESTROY_EVENT
94225117500: system.cpu0.workload.drivers: amdkfd destroying event 420372841
94227882000: system.cpu0.workload.drivers: ioctl: AMDKFD_IOC_DESTROY_EVENT
94227882000: system.cpu0.workload.drivers: amdkfd destroying event 420372842
94230591500: system.cpu0.workload.drivers: ioctl: AMDKFD_IOC_DESTROY_EVENT
94230591500: system.cpu0.workload.drivers: amdkfd destroying event 420372843
94234593000: system.cpu0.workload.drivers: ioctl: AMDKFD_IOC_DESTROY_EVENT
94234593000: system.cpu0.workload.drivers: amdkfd destroying event 420372844
94237310500: system.cpu0.workload.drivers: ioctl: AMDKFD_IOC_DESTROY_EVENT
94237310500: system.cpu0.workload.drivers: amdkfd destroying event 420372845
94240147500: system.cpu0.workload.drivers: ioctl: AMDKFD_IOC_DESTROY_EVENT
94240147500: system.cpu0.workload.drivers: amdkfd destroying event 420372846
94242725500: system.cpu0.workload.drivers: ioctl: AMDKFD_IOC_DESTROY_EVENT
94242725500: system.cpu0.workload.drivers: amdkfd destroying event 420372847
94245555500: system.cpu0.workload.drivers: ioctl: AMDKFD_IOC_DESTROY_EVENT
94245555500: system.cpu0.workload.drivers: amdkfd destroying event 420372848
94248327500: system.cpu0.workload.drivers: ioctl: AMDKFD_IOC_DESTROY_EVENT
94248327500: system.cpu0.workload.drivers: amdkfd destroying event 420372849
94250977000: system.cpu0.workload.drivers: ioctl: AMDKFD_IOC_DESTROY_EVENT
94250977000: system.cpu0.workload.drivers: amdkfd destroying event 420372850
94253602000: system.cpu0.workload.drivers: ioctl: AMDKFD_IOC_DESTROY_EVENT
94253602000: system.cpu0.workload.drivers: amdkfd destroying event 420372851
94256437000: system.cpu0.workload.drivers: ioctl: AMDKFD_IOC_DESTROY_EVENT
94256437000: system.cpu0.workload.drivers: amdkfd destroying event 420372852
94259072000: system.cpu0.workload.drivers: ioctl: AMDKFD_IOC_DESTROY_EVENT
94259072000: system.cpu0.workload.drivers: amdkfd destroying event 420372853
94261715000: system.cpu0.workload.drivers: ioctl: AMDKFD_IOC_DESTROY_EVENT
94261715000: system.cpu0.workload.drivers: amdkfd destroying event 420372854
94264154500: system.cpu0.workload.drivers: ioctl: AMDKFD_IOC_DESTROY_EVENT
94264154500: system.cpu0.workload.drivers: amdkfd destroying event 420372855
94266709500: system.cpu0.workload.drivers: ioctl: AMDKFD_IOC_DESTROY_EVENT
94266709500: system.cpu0.workload.drivers: amdkfd destroying event 420372856
94269301000: system.cpu0.workload.drivers: ioctl: AMDKFD_IOC_DESTROY_EVENT
94269301000: system.cpu0.workload.drivers: amdkfd destroying event 420372857
94271791000: system.cpu0.workload.drivers: ioctl: AMDKFD_IOC_DESTROY_EVENT
94271791000: system.cpu0.workload.drivers: amdkfd destroying event 420372858
94274366500: system.cpu0.workload.drivers: ioctl: AMDKFD_IOC_DESTROY_EVENT
94274366500: system.cpu0.workload.drivers: amdkfd destroying event 420372859
94279030500: system.cpu0.workload.drivers: ioctl: AMDKFD_IOC_DESTROY_EVENT
94279030500: system.cpu0.workload.drivers: amdkfd destroying event 420372860
94281565500: system.cpu0.workload.drivers: ioctl: AMDKFD_IOC_DESTROY_EVENT
94281565500: system.cpu0.workload.drivers: amdkfd destroying event 420372861
94284138500: system.cpu0.workload.drivers: ioctl: AMDKFD_IOC_DESTROY_EVENT
94284138500: system.cpu0.workload.drivers: amdkfd destroying event 420372862
94286548000: system.cpu0.workload.drivers: ioctl: AMDKFD_IOC_DESTROY_EVENT
94286548000: system.cpu0.workload.drivers: amdkfd destroying event 420372863
94289246000: system.cpu0.workload.drivers: ioctl: AMDKFD_IOC_DESTROY_EVENT
94289246000: system.cpu0.workload.drivers: amdkfd destroying event 420372864
94291747000: system.cpu0.workload.drivers: ioctl: AMDKFD_IOC_DESTROY_EVENT
94291747000: system.cpu0.workload.drivers: amdkfd destroying event 420372865
94294195500: system.cpu0.workload.drivers: ioctl: AMDKFD_IOC_DESTROY_EVENT
94294195500: system.cpu0.workload.drivers: amdkfd destroying event 420372866
94296688500: system.cpu0.workload.drivers: ioctl: AMDKFD_IOC_DESTROY_EVENT
94296688500: system.cpu0.workload.drivers: amdkfd destroying event 420372867
94299621500: system.cpu0.workload.drivers: ioctl: AMDKFD_IOC_DESTROY_EVENT
94299621500: system.cpu0.workload.drivers: amdkfd destroying event 420372868
94302006000: system.cpu0.workload.drivers: ioctl: AMDKFD_IOC_DESTROY_EVENT
94302006000: system.cpu0.workload.drivers: amdkfd destroying event 420372869
94304477500: system.cpu0.workload.drivers: ioctl: AMDKFD_IOC_DESTROY_EVENT
94304477500: system.cpu0.workload.drivers: amdkfd destroying event 420372870
94307643000: system.cpu0.workload.drivers: ioctl: AMDKFD_IOC_DESTROY_EVENT
94307643000: system.cpu0.workload.drivers: amdkfd destroying event 420372871
94310435500: system.cpu0.workload.drivers: ioctl: AMDKFD_IOC_DESTROY_EVENT
94310435500: system.cpu0.workload.drivers: amdkfd destroying event 420372872
94313394000: system.cpu0.workload.drivers: ioctl: AMDKFD_IOC_DESTROY_EVENT
94313394000: system.cpu0.workload.drivers: amdkfd destroying event 420372873
94315850000: system.cpu0.workload.drivers: ioctl: AMDKFD_IOC_DESTROY_EVENT
94315850000: system.cpu0.workload.drivers: amdkfd destroying event 420372874
94318410500: system.cpu0.workload.drivers: ioctl: AMDKFD_IOC_DESTROY_EVENT
94318410500: system.cpu0.workload.drivers: amdkfd destroying event 420372875
94321743500: system.cpu0.workload.drivers: ioctl: AMDKFD_IOC_DESTROY_EVENT
94321743500: system.cpu0.workload.drivers: amdkfd destroying event 420372876
94324085000: system.cpu0.workload.drivers: ioctl: AMDKFD_IOC_DESTROY_EVENT
94324085000: system.cpu0.workload.drivers: amdkfd destroying event 420372877
94326482500: system.cpu0.workload.drivers: ioctl: AMDKFD_IOC_DESTROY_EVENT
94326482500: system.cpu0.workload.drivers: amdkfd destroying event 420372878
94328883000: system.cpu0.workload.drivers: ioctl: AMDKFD_IOC_DESTROY_EVENT
94328883000: system.cpu0.workload.drivers: amdkfd destroying event 420372879
94332148500: system.cpu0.workload.drivers: ioctl: AMDKFD_IOC_DESTROY_EVENT
94332148500: system.cpu0.workload.drivers: amdkfd destroying event 420372880
94334477000: system.cpu0.workload.drivers: ioctl: AMDKFD_IOC_DESTROY_EVENT
94334477000: system.cpu0.workload.drivers: amdkfd destroying event 420372881
94336849500: system.cpu0.workload.drivers: ioctl: AMDKFD_IOC_DESTROY_EVENT
94336849500: system.cpu0.workload.drivers: amdkfd destroying event 420372882
94339366000: system.cpu0.workload.drivers: ioctl: AMDKFD_IOC_DESTROY_EVENT
94339366000: system.cpu0.workload.drivers: amdkfd destroying event 420372883
94342153500: system.cpu0.workload.drivers: ioctl: AMDKFD_IOC_DESTROY_EVENT
94342153500: system.cpu0.workload.drivers: amdkfd destroying event 420372884
94344640500: system.cpu0.workload.drivers: ioctl: AMDKFD_IOC_DESTROY_EVENT
94344640500: system.cpu0.workload.drivers: amdkfd destroying event 420372885
94346976000: system.cpu0.workload.drivers: ioctl: AMDKFD_IOC_DESTROY_EVENT
94346976000: system.cpu0.workload.drivers: amdkfd destroying event 420372886
94349364500: system.cpu0.workload.drivers: ioctl: AMDKFD_IOC_DESTROY_EVENT
94349364500: system.cpu0.workload.drivers: amdkfd destroying event 420372887
94351720500: system.cpu0.workload.drivers: ioctl: AMDKFD_IOC_DESTROY_EVENT
94351720500: system.cpu0.workload.drivers: amdkfd destroying event 420372888
94353962500: system.cpu0.workload.drivers: ioctl: AMDKFD_IOC_DESTROY_EVENT
94353962500: system.cpu0.workload.drivers: amdkfd destroying event 420372889
94356263500: system.cpu0.workload.drivers: ioctl: AMDKFD_IOC_DESTROY_EVENT
94356263500: system.cpu0.workload.drivers: amdkfd destroying event 420372890
94358615500: system.cpu0.workload.drivers: ioctl: AMDKFD_IOC_DESTROY_EVENT
94358615500: system.cpu0.workload.drivers: amdkfd destroying event 420372891
94362297000: system.cpu0.workload.drivers: ioctl: AMDKFD_IOC_DESTROY_EVENT
94362297000: system.cpu0.workload.drivers: amdkfd destroying event 420372892
94364682000: system.cpu0.workload.drivers: ioctl: AMDKFD_IOC_DESTROY_EVENT
94364682000: system.cpu0.workload.drivers: amdkfd destroying event 420372893
94367114000: system.cpu0.workload.drivers: ioctl: AMDKFD_IOC_DESTROY_EVENT
94367114000: system.cpu0.workload.drivers: amdkfd destroying event 420372894
94369382500: system.cpu0.workload.drivers: ioctl: AMDKFD_IOC_DESTROY_EVENT
94369382500: system.cpu0.workload.drivers: amdkfd destroying event 420372895
94371939500: system.cpu0.workload.drivers: ioctl: AMDKFD_IOC_DESTROY_EVENT
94371939500: system.cpu0.workload.drivers: amdkfd destroying event 420372896
94374299500: system.cpu0.workload.drivers: ioctl: AMDKFD_IOC_DESTROY_EVENT
94374299500: system.cpu0.workload.drivers: amdkfd destroying event 420372897
94377277500: system.cpu0.workload.drivers: ioctl: AMDKFD_IOC_DESTROY_EVENT
94377277500: system.cpu0.workload.drivers: amdkfd destroying event 420372898
94379629500: system.cpu0.workload.drivers: ioctl: AMDKFD_IOC_DESTROY_EVENT
94379629500: system.cpu0.workload.drivers: amdkfd destroying event 420372899
94382733500: system.cpu0.workload.drivers: ioctl: AMDKFD_IOC_DESTROY_EVENT
94382733500: system.cpu0.workload.drivers: amdkfd destroying event 420372900
94385132500: system.cpu0.workload.drivers: ioctl: AMDKFD_IOC_DESTROY_EVENT
94385132500: system.cpu0.workload.drivers: amdkfd destroying event 420372901
94387424000: system.cpu0.workload.drivers: ioctl: AMDKFD_IOC_DESTROY_EVENT
94387424000: system.cpu0.workload.drivers: amdkfd destroying event 420372902
94389847500: system.cpu0.workload.drivers: ioctl: AMDKFD_IOC_DESTROY_EVENT
94389847500: system.cpu0.workload.drivers: amdkfd destroying event 420372903
94392469000: system.cpu0.workload.drivers: ioctl: AMDKFD_IOC_DESTROY_EVENT
94392469000: system.cpu0.workload.drivers: amdkfd destroying event 420372904
94394685500: system.cpu0.workload.drivers: ioctl: AMDKFD_IOC_DESTROY_EVENT
94394685500: system.cpu0.workload.drivers: amdkfd destroying event 420372905
94396949000: system.cpu0.workload.drivers: ioctl: AMDKFD_IOC_DESTROY_EVENT
94396949000: system.cpu0.workload.drivers: amdkfd destroying event 420372906
94399356500: system.cpu0.workload.drivers: ioctl: AMDKFD_IOC_DESTROY_EVENT
94399356500: system.cpu0.workload.drivers: amdkfd destroying event 420372907
94402195000: system.cpu0.workload.drivers: ioctl: AMDKFD_IOC_DESTROY_EVENT
94402195000: system.cpu0.workload.drivers: amdkfd destroying event 420372908
94404404500: system.cpu0.workload.drivers: ioctl: AMDKFD_IOC_DESTROY_EVENT
94404404500: system.cpu0.workload.drivers: amdkfd destroying event 420372909
94406661000: system.cpu0.workload.drivers: ioctl: AMDKFD_IOC_DESTROY_EVENT
94406661000: system.cpu0.workload.drivers: amdkfd destroying event 420372910
94408862500: system.cpu0.workload.drivers: ioctl: AMDKFD_IOC_DESTROY_EVENT
94408862500: system.cpu0.workload.drivers: amdkfd destroying event 420372911
94411479500: system.cpu0.workload.drivers: ioctl: AMDKFD_IOC_DESTROY_EVENT
94411479500: system.cpu0.workload.drivers: amdkfd destroying event 420372912
94413775500: system.cpu0.workload.drivers: ioctl: AMDKFD_IOC_DESTROY_EVENT
94413775500: system.cpu0.workload.drivers: amdkfd destroying event 420372913
94416686500: system.cpu0.workload.drivers: ioctl: AMDKFD_IOC_DESTROY_EVENT
94416686500: system.cpu0.workload.drivers: amdkfd destroying event 420372914
94418962500: system.cpu0.workload.drivers: ioctl: AMDKFD_IOC_DESTROY_EVENT
94418962500: system.cpu0.workload.drivers: amdkfd destroying event 420372915
94421573500: system.cpu0.workload.drivers: ioctl: AMDKFD_IOC_DESTROY_EVENT
94421573500: system.cpu0.workload.drivers: amdkfd destroying event 420372916
94423950000: system.cpu0.workload.drivers: ioctl: AMDKFD_IOC_DESTROY_EVENT
94423950000: system.cpu0.workload.drivers: amdkfd destroying event 420372917
94426238000: system.cpu0.workload.drivers: ioctl: AMDKFD_IOC_DESTROY_EVENT
94426238000: system.cpu0.workload.drivers: amdkfd destroying event 420372918
94428371500: system.cpu0.workload.drivers: ioctl: AMDKFD_IOC_DESTROY_EVENT
94428371500: system.cpu0.workload.drivers: amdkfd destroying event 420372919
94430918500: system.cpu0.workload.drivers: ioctl: AMDKFD_IOC_DESTROY_EVENT
94430918500: system.cpu0.workload.drivers: amdkfd destroying event 420372920
94433158500: system.cpu0.workload.drivers: ioctl: AMDKFD_IOC_DESTROY_EVENT
94433158500: system.cpu0.workload.drivers: amdkfd destroying event 420372921
94435527000: system.cpu0.workload.drivers: ioctl: AMDKFD_IOC_DESTROY_EVENT
94435527000: system.cpu0.workload.drivers: amdkfd destroying event 420372922
94437702000: system.cpu0.workload.drivers: ioctl: AMDKFD_IOC_DESTROY_EVENT
94437702000: system.cpu0.workload.drivers: amdkfd destroying event 420372923
94439927500: system.cpu0.workload.drivers: ioctl: AMDKFD_IOC_DESTROY_EVENT
94439927500: system.cpu0.workload.drivers: amdkfd destroying event 420372924
Ticks: 18446744073709551615
Exiting because  simulate() limit reached
