
---------- Begin Simulation Statistics ----------
sim_seconds                                  0.085526                       # Number of seconds simulated
sim_ticks                                 85525846000                       # Number of ticks simulated
final_tick                                85525846000                       # Number of ticks from beginning of simulation (restored from checkpoints and never reset)
sim_freq                                 1000000000000                       # Frequency of simulated ticks
host_inst_rate                                 325919                       # Simulator instruction rate (inst/s)
host_op_rate                                   656947                       # Simulator op (including micro ops) rate (op/s)
host_tick_rate                              814180831                       # Simulator tick rate (ticks/s)
host_mem_usage                                1662460                       # Number of bytes of host memory used
host_seconds                                   105.05                       # Real time elapsed on the host
sim_insts                                    34236198                       # Number of instructions simulated
sim_ops                                      69009149                       # Number of ops (including micro ops) simulated
system.voltage_domain.voltage                       1                       # Voltage in Volts
system.clk_domain.clock                          1000                       # Clock period in ticks
system.mem_ctrls.pwrStateResidencyTicks::UNDEFINED  85525846000                       # Cumulative time (in ticks) in various power states
system.mem_ctrls.bytes_read::ruby.dir_cntrl0     16424896                       # Number of bytes read from this memory
system.mem_ctrls.bytes_read::total           16424896                       # Number of bytes read from this memory
system.mem_ctrls.bytes_written::ruby.dir_cntrl0       325440                       # Number of bytes written to this memory
system.mem_ctrls.bytes_written::total          325440                       # Number of bytes written to this memory
system.mem_ctrls.num_reads::ruby.dir_cntrl0       256639                       # Number of read requests responded to by this memory
system.mem_ctrls.num_reads::total              256639                       # Number of read requests responded to by this memory
system.mem_ctrls.num_writes::ruby.dir_cntrl0         5085                       # Number of write requests responded to by this memory
system.mem_ctrls.num_writes::total               5085                       # Number of write requests responded to by this memory
system.mem_ctrls.bw_read::ruby.dir_cntrl0    192045993                       # Total read bandwidth from this memory (bytes/s)
system.mem_ctrls.bw_read::total             192045993                       # Total read bandwidth from this memory (bytes/s)
system.mem_ctrls.bw_write::ruby.dir_cntrl0      3805166                       # Write bandwidth from this memory (bytes/s)
system.mem_ctrls.bw_write::total              3805166                       # Write bandwidth from this memory (bytes/s)
system.mem_ctrls.bw_total::ruby.dir_cntrl0    195851158                       # Total bandwidth to/from this memory (bytes/s)
system.mem_ctrls.bw_total::total            195851158                       # Total bandwidth to/from this memory (bytes/s)
system.mem_ctrls.readReqs                      256639                       # Number of read requests accepted
system.mem_ctrls.writeReqs                       5085                       # Number of write requests accepted
system.mem_ctrls.readBursts                    256639                       # Number of DRAM read bursts, including those serviced by the write queue
system.mem_ctrls.writeBursts                     5085                       # Number of DRAM write bursts, including those merged in the write queue
system.mem_ctrls.bytesReadDRAM               16424320                       # Total number of bytes read from DRAM
system.mem_ctrls.bytesReadWrQ                     576                       # Total number of bytes read from write queue
system.mem_ctrls.bytesWritten                  324352                       # Total number of bytes written to DRAM
system.mem_ctrls.bytesReadSys                16424896                       # Total read bytes from the system interface side
system.mem_ctrls.bytesWrittenSys               325440                       # Total written bytes from the system interface side
system.mem_ctrls.servicedByWrQ                      9                       # Number of DRAM read bursts serviced by the write queue
system.mem_ctrls.mergedWrBursts                     0                       # Number of DRAM write bursts merged with an existing one
system.mem_ctrls.neitherReadNorWriteReqs            0                       # Number of requests that are neither read nor write
system.mem_ctrls.perBankRdBursts::0             16175                       # Per bank write bursts
system.mem_ctrls.perBankRdBursts::1             16045                       # Per bank write bursts
system.mem_ctrls.perBankRdBursts::2             15893                       # Per bank write bursts
system.mem_ctrls.perBankRdBursts::3             16123                       # Per bank write bursts
system.mem_ctrls.perBankRdBursts::4             16101                       # Per bank write bursts
system.mem_ctrls.perBankRdBursts::5             16006                       # Per bank write bursts
system.mem_ctrls.perBankRdBursts::6             15922                       # Per bank write bursts
system.mem_ctrls.perBankRdBursts::7             16019                       # Per bank write bursts
system.mem_ctrls.perBankRdBursts::8             15819                       # Per bank write bursts
system.mem_ctrls.perBankRdBursts::9             15974                       # Per bank write bursts
system.mem_ctrls.perBankRdBursts::10            15989                       # Per bank write bursts
system.mem_ctrls.perBankRdBursts::11            16291                       # Per bank write bursts
system.mem_ctrls.perBankRdBursts::12            16034                       # Per bank write bursts
system.mem_ctrls.perBankRdBursts::13            16156                       # Per bank write bursts
system.mem_ctrls.perBankRdBursts::14            16052                       # Per bank write bursts
system.mem_ctrls.perBankRdBursts::15            16031                       # Per bank write bursts
system.mem_ctrls.perBankWrBursts::0               307                       # Per bank write bursts
system.mem_ctrls.perBankWrBursts::1               316                       # Per bank write bursts
system.mem_ctrls.perBankWrBursts::2               305                       # Per bank write bursts
system.mem_ctrls.perBankWrBursts::3               323                       # Per bank write bursts
system.mem_ctrls.perBankWrBursts::4               319                       # Per bank write bursts
system.mem_ctrls.perBankWrBursts::5               306                       # Per bank write bursts
system.mem_ctrls.perBankWrBursts::6               315                       # Per bank write bursts
system.mem_ctrls.perBankWrBursts::7               355                       # Per bank write bursts
system.mem_ctrls.perBankWrBursts::8               290                       # Per bank write bursts
system.mem_ctrls.perBankWrBursts::9               327                       # Per bank write bursts
system.mem_ctrls.perBankWrBursts::10              283                       # Per bank write bursts
system.mem_ctrls.perBankWrBursts::11              328                       # Per bank write bursts
system.mem_ctrls.perBankWrBursts::12              318                       # Per bank write bursts
system.mem_ctrls.perBankWrBursts::13              348                       # Per bank write bursts
system.mem_ctrls.perBankWrBursts::14              311                       # Per bank write bursts
system.mem_ctrls.perBankWrBursts::15              317                       # Per bank write bursts
system.mem_ctrls.numRdRetry                         0                       # Number of times read queue was full causing retry
system.mem_ctrls.numWrRetry                         0                       # Number of times write queue was full causing retry
system.mem_ctrls.totGap                   85525719500                       # Total gap between requests
system.mem_ctrls.readPktSize::0                     0                       # Read request sizes (log2)
system.mem_ctrls.readPktSize::1                     0                       # Read request sizes (log2)
system.mem_ctrls.readPktSize::2                     0                       # Read request sizes (log2)
system.mem_ctrls.readPktSize::3                     0                       # Read request sizes (log2)
system.mem_ctrls.readPktSize::4                     0                       # Read request sizes (log2)
system.mem_ctrls.readPktSize::5                     0                       # Read request sizes (log2)
system.mem_ctrls.readPktSize::6                256639                       # Read request sizes (log2)
system.mem_ctrls.writePktSize::0                    0                       # Write request sizes (log2)
system.mem_ctrls.writePktSize::1                    0                       # Write request sizes (log2)
system.mem_ctrls.writePktSize::2                    0                       # Write request sizes (log2)
system.mem_ctrls.writePktSize::3                    0                       # Write request sizes (log2)
system.mem_ctrls.writePktSize::4                    0                       # Write request sizes (log2)
system.mem_ctrls.writePktSize::5                    0                       # Write request sizes (log2)
system.mem_ctrls.writePktSize::6                 5085                       # Write request sizes (log2)
system.mem_ctrls.rdQLenPdf::0                  256581                       # What read queue length does an incoming req see
system.mem_ctrls.rdQLenPdf::1                      47                       # What read queue length does an incoming req see
system.mem_ctrls.rdQLenPdf::2                       1                       # What read queue length does an incoming req see
system.mem_ctrls.rdQLenPdf::3                       1                       # What read queue length does an incoming req see
system.mem_ctrls.rdQLenPdf::4                       0                       # What read queue length does an incoming req see
system.mem_ctrls.rdQLenPdf::5                       0                       # What read queue length does an incoming req see
system.mem_ctrls.rdQLenPdf::6                       0                       # What read queue length does an incoming req see
system.mem_ctrls.rdQLenPdf::7                       0                       # What read queue length does an incoming req see
system.mem_ctrls.rdQLenPdf::8                       0                       # What read queue length does an incoming req see
system.mem_ctrls.rdQLenPdf::9                       0                       # What read queue length does an incoming req see
system.mem_ctrls.rdQLenPdf::10                      0                       # What read queue length does an incoming req see
system.mem_ctrls.rdQLenPdf::11                      0                       # What read queue length does an incoming req see
system.mem_ctrls.rdQLenPdf::12                      0                       # What read queue length does an incoming req see
system.mem_ctrls.rdQLenPdf::13                      0                       # What read queue length does an incoming req see
system.mem_ctrls.rdQLenPdf::14                      0                       # What read queue length does an incoming req see
system.mem_ctrls.rdQLenPdf::15                      0                       # What read queue length does an incoming req see
system.mem_ctrls.rdQLenPdf::16                      0                       # What read queue length does an incoming req see
system.mem_ctrls.rdQLenPdf::17                      0                       # What read queue length does an incoming req see
system.mem_ctrls.rdQLenPdf::18                      0                       # What read queue length does an incoming req see
system.mem_ctrls.rdQLenPdf::19                      0                       # What read queue length does an incoming req see
system.mem_ctrls.rdQLenPdf::20                      0                       # What read queue length does an incoming req see
system.mem_ctrls.rdQLenPdf::21                      0                       # What read queue length does an incoming req see
system.mem_ctrls.rdQLenPdf::22                      0                       # What read queue length does an incoming req see
system.mem_ctrls.rdQLenPdf::23                      0                       # What read queue length does an incoming req see
system.mem_ctrls.rdQLenPdf::24                      0                       # What read queue length does an incoming req see
system.mem_ctrls.rdQLenPdf::25                      0                       # What read queue length does an incoming req see
system.mem_ctrls.rdQLenPdf::26                      0                       # What read queue length does an incoming req see
system.mem_ctrls.rdQLenPdf::27                      0                       # What read queue length does an incoming req see
system.mem_ctrls.rdQLenPdf::28                      0                       # What read queue length does an incoming req see
system.mem_ctrls.rdQLenPdf::29                      0                       # What read queue length does an incoming req see
system.mem_ctrls.rdQLenPdf::30                      0                       # What read queue length does an incoming req see
system.mem_ctrls.rdQLenPdf::31                      0                       # What read queue length does an incoming req see
system.mem_ctrls.wrQLenPdf::0                       1                       # What write queue length does an incoming req see
system.mem_ctrls.wrQLenPdf::1                       1                       # What write queue length does an incoming req see
system.mem_ctrls.wrQLenPdf::2                       1                       # What write queue length does an incoming req see
system.mem_ctrls.wrQLenPdf::3                       1                       # What write queue length does an incoming req see
system.mem_ctrls.wrQLenPdf::4                       1                       # What write queue length does an incoming req see
system.mem_ctrls.wrQLenPdf::5                       1                       # What write queue length does an incoming req see
system.mem_ctrls.wrQLenPdf::6                       1                       # What write queue length does an incoming req see
system.mem_ctrls.wrQLenPdf::7                       1                       # What write queue length does an incoming req see
system.mem_ctrls.wrQLenPdf::8                       1                       # What write queue length does an incoming req see
system.mem_ctrls.wrQLenPdf::9                       1                       # What write queue length does an incoming req see
system.mem_ctrls.wrQLenPdf::10                      1                       # What write queue length does an incoming req see
system.mem_ctrls.wrQLenPdf::11                      1                       # What write queue length does an incoming req see
system.mem_ctrls.wrQLenPdf::12                      1                       # What write queue length does an incoming req see
system.mem_ctrls.wrQLenPdf::13                      1                       # What write queue length does an incoming req see
system.mem_ctrls.wrQLenPdf::14                      1                       # What write queue length does an incoming req see
system.mem_ctrls.wrQLenPdf::15                    128                       # What write queue length does an incoming req see
system.mem_ctrls.wrQLenPdf::16                    131                       # What write queue length does an incoming req see
system.mem_ctrls.wrQLenPdf::17                    262                       # What write queue length does an incoming req see
system.mem_ctrls.wrQLenPdf::18                    303                       # What write queue length does an incoming req see
system.mem_ctrls.wrQLenPdf::19                    303                       # What write queue length does an incoming req see
system.mem_ctrls.wrQLenPdf::20                    304                       # What write queue length does an incoming req see
system.mem_ctrls.wrQLenPdf::21                    305                       # What write queue length does an incoming req see
system.mem_ctrls.wrQLenPdf::22                    303                       # What write queue length does an incoming req see
system.mem_ctrls.wrQLenPdf::23                    302                       # What write queue length does an incoming req see
system.mem_ctrls.wrQLenPdf::24                    300                       # What write queue length does an incoming req see
system.mem_ctrls.wrQLenPdf::25                    300                       # What write queue length does an incoming req see
system.mem_ctrls.wrQLenPdf::26                    301                       # What write queue length does an incoming req see
system.mem_ctrls.wrQLenPdf::27                    300                       # What write queue length does an incoming req see
system.mem_ctrls.wrQLenPdf::28                    301                       # What write queue length does an incoming req see
system.mem_ctrls.wrQLenPdf::29                    300                       # What write queue length does an incoming req see
system.mem_ctrls.wrQLenPdf::30                    300                       # What write queue length does an incoming req see
system.mem_ctrls.wrQLenPdf::31                    300                       # What write queue length does an incoming req see
system.mem_ctrls.wrQLenPdf::32                    300                       # What write queue length does an incoming req see
system.mem_ctrls.wrQLenPdf::33                     22                       # What write queue length does an incoming req see
system.mem_ctrls.wrQLenPdf::34                      5                       # What write queue length does an incoming req see
system.mem_ctrls.wrQLenPdf::35                      0                       # What write queue length does an incoming req see
system.mem_ctrls.wrQLenPdf::36                      0                       # What write queue length does an incoming req see
system.mem_ctrls.wrQLenPdf::37                      0                       # What write queue length does an incoming req see
system.mem_ctrls.wrQLenPdf::38                      0                       # What write queue length does an incoming req see
system.mem_ctrls.wrQLenPdf::39                      0                       # What write queue length does an incoming req see
system.mem_ctrls.wrQLenPdf::40                      0                       # What write queue length does an incoming req see
system.mem_ctrls.wrQLenPdf::41                      0                       # What write queue length does an incoming req see
system.mem_ctrls.wrQLenPdf::42                      0                       # What write queue length does an incoming req see
system.mem_ctrls.wrQLenPdf::43                      0                       # What write queue length does an incoming req see
system.mem_ctrls.wrQLenPdf::44                      0                       # What write queue length does an incoming req see
system.mem_ctrls.wrQLenPdf::45                      0                       # What write queue length does an incoming req see
system.mem_ctrls.wrQLenPdf::46                      0                       # What write queue length does an incoming req see
system.mem_ctrls.wrQLenPdf::47                      0                       # What write queue length does an incoming req see
system.mem_ctrls.wrQLenPdf::48                      0                       # What write queue length does an incoming req see
system.mem_ctrls.wrQLenPdf::49                      0                       # What write queue length does an incoming req see
system.mem_ctrls.wrQLenPdf::50                      0                       # What write queue length does an incoming req see
system.mem_ctrls.wrQLenPdf::51                      0                       # What write queue length does an incoming req see
system.mem_ctrls.wrQLenPdf::52                      0                       # What write queue length does an incoming req see
system.mem_ctrls.wrQLenPdf::53                      0                       # What write queue length does an incoming req see
system.mem_ctrls.wrQLenPdf::54                      0                       # What write queue length does an incoming req see
system.mem_ctrls.wrQLenPdf::55                      0                       # What write queue length does an incoming req see
system.mem_ctrls.wrQLenPdf::56                      0                       # What write queue length does an incoming req see
system.mem_ctrls.wrQLenPdf::57                      0                       # What write queue length does an incoming req see
system.mem_ctrls.wrQLenPdf::58                      0                       # What write queue length does an incoming req see
system.mem_ctrls.wrQLenPdf::59                      0                       # What write queue length does an incoming req see
system.mem_ctrls.wrQLenPdf::60                      0                       # What write queue length does an incoming req see
system.mem_ctrls.wrQLenPdf::61                      0                       # What write queue length does an incoming req see
system.mem_ctrls.wrQLenPdf::62                      0                       # What write queue length does an incoming req see
system.mem_ctrls.wrQLenPdf::63                      0                       # What write queue length does an incoming req see
system.mem_ctrls.bytesPerActivate::samples        34826                       # Bytes accessed per row activation
system.mem_ctrls.bytesPerActivate::mean    480.915178                       # Bytes accessed per row activation
system.mem_ctrls.bytesPerActivate::gmean   271.954741                       # Bytes accessed per row activation
system.mem_ctrls.bytesPerActivate::stdev   416.772433                       # Bytes accessed per row activation
system.mem_ctrls.bytesPerActivate::0-127        11008     31.61%     31.61% # Bytes accessed per row activation
system.mem_ctrls.bytesPerActivate::128-255         4841     13.90%     45.51% # Bytes accessed per row activation
system.mem_ctrls.bytesPerActivate::256-383         2206      6.33%     51.84% # Bytes accessed per row activation
system.mem_ctrls.bytesPerActivate::384-511         1209      3.47%     55.31% # Bytes accessed per row activation
system.mem_ctrls.bytesPerActivate::512-639         2667      7.66%     62.97% # Bytes accessed per row activation
system.mem_ctrls.bytesPerActivate::640-767          694      1.99%     64.97% # Bytes accessed per row activation
system.mem_ctrls.bytesPerActivate::768-895          429      1.23%     66.20% # Bytes accessed per row activation
system.mem_ctrls.bytesPerActivate::896-1023          442      1.27%     67.47% # Bytes accessed per row activation
system.mem_ctrls.bytesPerActivate::1024-1151        11330     32.53%    100.00% # Bytes accessed per row activation
system.mem_ctrls.bytesPerActivate::total        34826                       # Bytes accessed per row activation
system.mem_ctrls.rdPerTurnAround::samples          300                       # Reads before turning the bus around for writes
system.mem_ctrls.rdPerTurnAround::mean     855.290000                       # Reads before turning the bus around for writes
system.mem_ctrls.rdPerTurnAround::stdev  10756.805471                       # Reads before turning the bus around for writes
system.mem_ctrls.rdPerTurnAround::0-8191          299     99.67%     99.67% # Reads before turning the bus around for writes
system.mem_ctrls.rdPerTurnAround::180224-188415            1      0.33%    100.00% # Reads before turning the bus around for writes
system.mem_ctrls.rdPerTurnAround::total           300                       # Reads before turning the bus around for writes
system.mem_ctrls.wrPerTurnAround::samples          300                       # Writes before turning the bus around for reads
system.mem_ctrls.wrPerTurnAround::mean      16.893333                       # Writes before turning the bus around for reads
system.mem_ctrls.wrPerTurnAround::gmean     16.860921                       # Writes before turning the bus around for reads
system.mem_ctrls.wrPerTurnAround::stdev      1.057837                       # Writes before turning the bus around for reads
system.mem_ctrls.wrPerTurnAround::16              171     57.00%     57.00% # Writes before turning the bus around for reads
system.mem_ctrls.wrPerTurnAround::17                2      0.67%     57.67% # Writes before turning the bus around for reads
system.mem_ctrls.wrPerTurnAround::18              117     39.00%     96.67% # Writes before turning the bus around for reads
system.mem_ctrls.wrPerTurnAround::19                8      2.67%     99.33% # Writes before turning the bus around for reads
system.mem_ctrls.wrPerTurnAround::20                2      0.67%    100.00% # Writes before turning the bus around for reads
system.mem_ctrls.wrPerTurnAround::total           300                       # Writes before turning the bus around for reads
system.mem_ctrls.totQLat                   3484940500                       # Total ticks spent queuing
system.mem_ctrls.totMemAccLat              8296753000                       # Total ticks spent from burst creation until serviced by the DRAM
system.mem_ctrls.totBusLat                 1283150000                       # Total ticks spent in databus transfers
system.mem_ctrls.avgQLat                     13579.63                       # Average queueing delay per DRAM burst
system.mem_ctrls.avgBusLat                    5000.00                       # Average bus latency per DRAM burst
system.mem_ctrls.avgMemAccLat                32329.63                       # Average memory access latency per DRAM burst
system.mem_ctrls.avgRdBW                       192.04                       # Average DRAM read bandwidth in MiByte/s
system.mem_ctrls.avgWrBW                         3.79                       # Average achieved write bandwidth in MiByte/s
system.mem_ctrls.avgRdBWSys                    192.05                       # Average system read bandwidth in MiByte/s
system.mem_ctrls.avgWrBWSys                      3.81                       # Average system write bandwidth in MiByte/s
system.mem_ctrls.peakBW                      12800.00                       # Theoretical peak bandwidth in MiByte/s
system.mem_ctrls.busUtil                         1.53                       # Data bus utilization in percentage
system.mem_ctrls.busUtilRead                     1.50                       # Data bus utilization in percentage for reads
system.mem_ctrls.busUtilWrite                    0.03                       # Data bus utilization in percentage for writes
system.mem_ctrls.avgRdQLen                       1.00                       # Average read queue length when enqueuing
system.mem_ctrls.avgWrQLen                      11.68                       # Average write queue length when enqueuing
system.mem_ctrls.readRowHits                   226370                       # Number of row buffer hits during reads
system.mem_ctrls.writeRowHits                     499                       # Number of row buffer hits during writes
system.mem_ctrls.readRowHitRate                 88.21                       # Row buffer hit rate for reads
system.mem_ctrls.writeRowHitRate                 9.81                       # Row buffer hit rate for writes
system.mem_ctrls.avgGap                     326778.28                       # Average gap between requests
system.mem_ctrls.pageHitRate                    86.69                       # Row buffer hit rate, read and write combined
system.mem_ctrls_0.actEnergy                122950800                       # Energy for activate commands per rank (pJ)
system.mem_ctrls_0.preEnergy                 65338515                       # Energy for precharge commands per rank (pJ)
system.mem_ctrls_0.readEnergy               915947760                       # Energy for read commands per rank (pJ)
system.mem_ctrls_0.writeEnergy               13290120                       # Energy for write commands per rank (pJ)
system.mem_ctrls_0.refreshEnergy         3030175200.000000                       # Energy for refresh commands per rank (pJ)
system.mem_ctrls_0.actBackEnergy           2375359860                       # Energy for active background per rank (pJ)
system.mem_ctrls_0.preBackEnergy            155143200                       # Energy for precharge background per rank (pJ)
system.mem_ctrls_0.actPowerDownEnergy     11843355690                       # Energy for active power-down per rank (pJ)
system.mem_ctrls_0.prePowerDownEnergy      2677393440                       # Energy for precharge power-down per rank (pJ)
system.mem_ctrls_0.selfRefreshEnergy      11617483200                       # Energy for self refresh per rank (pJ)
system.mem_ctrls_0.totalEnergy            32817442065                       # Total energy per rank (pJ)
system.mem_ctrls_0.averagePower            383.713738                       # Core power per rank (mW)
system.mem_ctrls_0.totalIdleTime          79910681500                       # Total Idle time Per DRAM Rank
system.mem_ctrls_0.memoryStateTime::IDLE    220642500                       # Time in different power states
system.mem_ctrls_0.memoryStateTime::REF    1281800000                       # Time in different power states
system.mem_ctrls_0.memoryStateTime::SREF  46965833500                       # Time in different power states
system.mem_ctrls_0.memoryStateTime::PRE_PDN   6972372500                       # Time in different power states
system.mem_ctrls_0.memoryStateTime::ACT    4112683250                       # Time in different power states
system.mem_ctrls_0.memoryStateTime::ACT_PDN  25972514250                       # Time in different power states
system.mem_ctrls_1.actEnergy                125728260                       # Energy for activate commands per rank (pJ)
system.mem_ctrls_1.preEnergy                 66826155                       # Energy for precharge commands per rank (pJ)
system.mem_ctrls_1.readEnergy               916390440                       # Energy for read commands per rank (pJ)
system.mem_ctrls_1.writeEnergy               13164840                       # Energy for write commands per rank (pJ)
system.mem_ctrls_1.refreshEnergy         3020340960.000000                       # Energy for refresh commands per rank (pJ)
system.mem_ctrls_1.actBackEnergy           2378903550                       # Energy for active background per rank (pJ)
system.mem_ctrls_1.preBackEnergy            152159520                       # Energy for precharge background per rank (pJ)
system.mem_ctrls_1.actPowerDownEnergy     11960305440                       # Energy for active power-down per rank (pJ)
system.mem_ctrls_1.prePowerDownEnergy      2527169760                       # Energy for precharge power-down per rank (pJ)
system.mem_ctrls_1.selfRefreshEnergy      11631596280                       # Energy for self refresh per rank (pJ)
system.mem_ctrls_1.totalEnergy            32793605895                       # Total energy per rank (pJ)
system.mem_ctrls_1.averagePower            383.435037                       # Core power per rank (mW)
system.mem_ctrls_1.totalIdleTime          79910158000                       # Total Idle time Per DRAM Rank
system.mem_ctrls_1.memoryStateTime::IDLE    211845000                       # Time in different power states
system.mem_ctrls_1.memoryStateTime::REF    1277640000                       # Time in different power states
system.mem_ctrls_1.memoryStateTime::SREF  47100540000                       # Time in different power states
system.mem_ctrls_1.memoryStateTime::PRE_PDN   6580965000                       # Time in different power states
system.mem_ctrls_1.memoryStateTime::ACT    4126201250                       # Time in different power states
system.mem_ctrls_1.memoryStateTime::ACT_PDN  26228654750                       # Time in different power states
system.ruby.clk_domain.clock                      500                       # Clock period in ticks
system.ruby.phys_mem.pwrStateResidencyTicks::UNDEFINED  85525846000                       # Cumulative time (in ticks) in various power states
system.ruby.phys_mem.bytes_read::cpu2.gpu_cmd_proc.hsapp          192                       # Number of bytes read from this memory
system.ruby.phys_mem.bytes_read::cpu2.gpu_cmd_proc          260                       # Number of bytes read from this memory
system.ruby.phys_mem.bytes_read::cpu0.inst    355357144                       # Number of bytes read from this memory
system.ruby.phys_mem.bytes_read::cpu0.data     75498697                       # Number of bytes read from this memory
system.ruby.phys_mem.bytes_read::cpu1.inst      7073624                       # Number of bytes read from this memory
system.ruby.phys_mem.bytes_read::cpu1.data      2331991                       # Number of bytes read from this memory
system.ruby.phys_mem.bytes_read::cpu2.CUs0.ComputeUnit         2372                       # Number of bytes read from this memory
system.ruby.phys_mem.bytes_read::cpu2.CUs1.ComputeUnit         2096                       # Number of bytes read from this memory
system.ruby.phys_mem.bytes_read::cpu2.CUs2.ComputeUnit         2096                       # Number of bytes read from this memory
system.ruby.phys_mem.bytes_read::cpu2.CUs3.ComputeUnit         2096                       # Number of bytes read from this memory
system.ruby.phys_mem.bytes_read::total      440270568                       # Number of bytes read from this memory
system.ruby.phys_mem.bytes_inst_read::cpu0.inst    355357144                       # Number of instructions bytes read from this memory
system.ruby.phys_mem.bytes_inst_read::cpu1.inst      7073624                       # Number of instructions bytes read from this memory
system.ruby.phys_mem.bytes_inst_read::cpu2.CUs0.ComputeUnit         1792                       # Number of instructions bytes read from this memory
system.ruby.phys_mem.bytes_inst_read::cpu2.CUs1.ComputeUnit         1536                       # Number of instructions bytes read from this memory
system.ruby.phys_mem.bytes_inst_read::cpu2.CUs2.ComputeUnit         1536                       # Number of instructions bytes read from this memory
system.ruby.phys_mem.bytes_inst_read::cpu2.CUs3.ComputeUnit         1536                       # Number of instructions bytes read from this memory
system.ruby.phys_mem.bytes_inst_read::total    362437168                       # Number of instructions bytes read from this memory
system.ruby.phys_mem.bytes_written::cpu2.gpu_cmd_proc.hsapp           24                       # Number of bytes written to this memory
system.ruby.phys_mem.bytes_written::cpu2.gpu_cmd_proc            8                       # Number of bytes written to this memory
system.ruby.phys_mem.bytes_written::cpu0.data     33799656                       # Number of bytes written to this memory
system.ruby.phys_mem.bytes_written::cpu1.data       223230                       # Number of bytes written to this memory
system.ruby.phys_mem.bytes_written::cpu2.CUs0.ComputeUnit            4                       # Number of bytes written to this memory
system.ruby.phys_mem.bytes_written::total     34022922                       # Number of bytes written to this memory
system.ruby.phys_mem.num_reads::cpu2.gpu_cmd_proc.hsapp            3                       # Number of read requests responded to by this memory
system.ruby.phys_mem.num_reads::cpu2.gpu_cmd_proc            5                       # Number of read requests responded to by this memory
system.ruby.phys_mem.num_reads::cpu0.inst     44419643                       # Number of read requests responded to by this memory
system.ruby.phys_mem.num_reads::cpu0.data     10228826                       # Number of read requests responded to by this memory
system.ruby.phys_mem.num_reads::cpu1.inst       884203                       # Number of read requests responded to by this memory
system.ruby.phys_mem.num_reads::cpu1.data       320523                       # Number of read requests responded to by this memory
system.ruby.phys_mem.num_reads::cpu2.CUs0.ComputeUnit          295                       # Number of read requests responded to by this memory
system.ruby.phys_mem.num_reads::cpu2.CUs1.ComputeUnit          288                       # Number of read requests responded to by this memory
system.ruby.phys_mem.num_reads::cpu2.CUs2.ComputeUnit          288                       # Number of read requests responded to by this memory
system.ruby.phys_mem.num_reads::cpu2.CUs3.ComputeUnit          288                       # Number of read requests responded to by this memory
system.ruby.phys_mem.num_reads::total        55854362                       # Number of read requests responded to by this memory
system.ruby.phys_mem.num_writes::cpu2.gpu_cmd_proc.hsapp            3                       # Number of write requests responded to by this memory
system.ruby.phys_mem.num_writes::cpu2.gpu_cmd_proc            1                       # Number of write requests responded to by this memory
system.ruby.phys_mem.num_writes::cpu0.data      4397380                       # Number of write requests responded to by this memory
system.ruby.phys_mem.num_writes::cpu1.data        28209                       # Number of write requests responded to by this memory
system.ruby.phys_mem.num_writes::cpu2.CUs0.ComputeUnit            1                       # Number of write requests responded to by this memory
system.ruby.phys_mem.num_writes::total        4425594                       # Number of write requests responded to by this memory
system.ruby.phys_mem.bw_read::cpu2.gpu_cmd_proc.hsapp         2245                       # Total read bandwidth from this memory (bytes/s)
system.ruby.phys_mem.bw_read::cpu2.gpu_cmd_proc         3040                       # Total read bandwidth from this memory (bytes/s)
system.ruby.phys_mem.bw_read::cpu0.inst    4154967891                       # Total read bandwidth from this memory (bytes/s)
system.ruby.phys_mem.bw_read::cpu0.data     882758845                       # Total read bandwidth from this memory (bytes/s)
system.ruby.phys_mem.bw_read::cpu1.inst      82707443                       # Total read bandwidth from this memory (bytes/s)
system.ruby.phys_mem.bw_read::cpu1.data      27266506                       # Total read bandwidth from this memory (bytes/s)
system.ruby.phys_mem.bw_read::cpu2.CUs0.ComputeUnit        27734                       # Total read bandwidth from this memory (bytes/s)
system.ruby.phys_mem.bw_read::cpu2.CUs1.ComputeUnit        24507                       # Total read bandwidth from this memory (bytes/s)
system.ruby.phys_mem.bw_read::cpu2.CUs2.ComputeUnit        24507                       # Total read bandwidth from this memory (bytes/s)
system.ruby.phys_mem.bw_read::cpu2.CUs3.ComputeUnit        24507                       # Total read bandwidth from this memory (bytes/s)
system.ruby.phys_mem.bw_read::total        5147807225                       # Total read bandwidth from this memory (bytes/s)
system.ruby.phys_mem.bw_inst_read::cpu0.inst   4154967891                       # Instruction read bandwidth from this memory (bytes/s)
system.ruby.phys_mem.bw_inst_read::cpu1.inst     82707443                       # Instruction read bandwidth from this memory (bytes/s)
system.ruby.phys_mem.bw_inst_read::cpu2.CUs0.ComputeUnit        20953                       # Instruction read bandwidth from this memory (bytes/s)
system.ruby.phys_mem.bw_inst_read::cpu2.CUs1.ComputeUnit        17959                       # Instruction read bandwidth from this memory (bytes/s)
system.ruby.phys_mem.bw_inst_read::cpu2.CUs2.ComputeUnit        17959                       # Instruction read bandwidth from this memory (bytes/s)
system.ruby.phys_mem.bw_inst_read::cpu2.CUs3.ComputeUnit        17959                       # Instruction read bandwidth from this memory (bytes/s)
system.ruby.phys_mem.bw_inst_read::total   4237750165                       # Instruction read bandwidth from this memory (bytes/s)
system.ruby.phys_mem.bw_write::cpu2.gpu_cmd_proc.hsapp          281                       # Write bandwidth from this memory (bytes/s)
system.ruby.phys_mem.bw_write::cpu2.gpu_cmd_proc           94                       # Write bandwidth from this memory (bytes/s)
system.ruby.phys_mem.bw_write::cpu0.data    395198149                       # Write bandwidth from this memory (bytes/s)
system.ruby.phys_mem.bw_write::cpu1.data      2610088                       # Write bandwidth from this memory (bytes/s)
system.ruby.phys_mem.bw_write::cpu2.CUs0.ComputeUnit           47                       # Write bandwidth from this memory (bytes/s)
system.ruby.phys_mem.bw_write::total        397808658                       # Write bandwidth from this memory (bytes/s)
system.ruby.phys_mem.bw_total::cpu2.gpu_cmd_proc.hsapp         2526                       # Total bandwidth to/from this memory (bytes/s)
system.ruby.phys_mem.bw_total::cpu2.gpu_cmd_proc         3134                       # Total bandwidth to/from this memory (bytes/s)
system.ruby.phys_mem.bw_total::cpu0.inst   4154967891                       # Total bandwidth to/from this memory (bytes/s)
system.ruby.phys_mem.bw_total::cpu0.data   1277956993                       # Total bandwidth to/from this memory (bytes/s)
system.ruby.phys_mem.bw_total::cpu1.inst     82707443                       # Total bandwidth to/from this memory (bytes/s)
system.ruby.phys_mem.bw_total::cpu1.data     29876594                       # Total bandwidth to/from this memory (bytes/s)
system.ruby.phys_mem.bw_total::cpu2.CUs0.ComputeUnit        27781                       # Total bandwidth to/from this memory (bytes/s)
system.ruby.phys_mem.bw_total::cpu2.CUs1.ComputeUnit        24507                       # Total bandwidth to/from this memory (bytes/s)
system.ruby.phys_mem.bw_total::cpu2.CUs2.ComputeUnit        24507                       # Total bandwidth to/from this memory (bytes/s)
system.ruby.phys_mem.bw_total::cpu2.CUs3.ComputeUnit        24507                       # Total bandwidth to/from this memory (bytes/s)
system.ruby.phys_mem.bw_total::total       5545615883                       # Total bandwidth to/from this memory (bytes/s)
system.pwrStateResidencyTicks::UNDEFINED  85525846000                       # Cumulative time (in ticks) in various power states
system.cpu0.clk_domain.voltage_domain.voltage            1                       # Voltage in Volts
system.cpu0.clk_domain.clock                      500                       # Clock period in ticks
system.cpu0.dtb.walker.pwrStateResidencyTicks::UNDEFINED  85525846000                       # Cumulative time (in ticks) in various power states
system.cpu0.dtb.rdAccesses                   10228826                       # TLB accesses on read requests
system.cpu0.dtb.wrAccesses                    4397383                       # TLB accesses on write requests
system.cpu0.dtb.rdMisses                       145432                       # TLB misses on read requests
system.cpu0.dtb.wrMisses                         8243                       # TLB misses on write requests
system.cpu0.apic_clk_domain.clock                8000                       # Clock period in ticks
system.cpu0.interrupts.pwrStateResidencyTicks::UNDEFINED  85525846000                       # Cumulative time (in ticks) in various power states
system.cpu0.itb.walker.pwrStateResidencyTicks::UNDEFINED  85525846000                       # Cumulative time (in ticks) in various power states
system.cpu0.itb.rdAccesses                          0                       # TLB accesses on read requests
system.cpu0.itb.wrAccesses                   44419644                       # TLB accesses on write requests
system.cpu0.itb.rdMisses                            0                       # TLB misses on read requests
system.cpu0.itb.wrMisses                         3162                       # TLB misses on write requests
system.cpu2.clk_domain.voltage_domain.voltage            1                       # Voltage in Volts
system.cpu2.clk_domain.clock                     1000                       # Clock period in ticks
system.cpu2.gpu_cmd_proc.dispatcher.num_kernel_launched            1                       # number of kernel launched
system.cpu2.gpu_cmd_proc.dispatcher.cycles_wait_dispatch            3                       # number of cycles with outstanding wavefronts that are waiting to be dispatched
system.cpu2.gpu_cmd_proc.hsapp.pwrStateResidencyTicks::UNDEFINED  85525846000                       # Cumulative time (in ticks) in various power states
system.cpu2.gpu_cmd_proc.pwrStateResidencyTicks::UNDEFINED  85525846000                       # Cumulative time (in ticks) in various power states
system.cpu0.workload.numSyscalls               235332                       # Number of system calls
system.cpu0.numPwrStateTransitions                  2                       # Number of power state transitions
system.cpu0.pwrStateClkGateDist::samples            1                       # Distribution of time spent in the clock gated state
system.cpu0.pwrStateClkGateDist::mean        14319000                       # Distribution of time spent in the clock gated state
system.cpu0.pwrStateClkGateDist::1000-5e+10            1    100.00%    100.00% # Distribution of time spent in the clock gated state
system.cpu0.pwrStateClkGateDist::min_value     14319000                       # Distribution of time spent in the clock gated state
system.cpu0.pwrStateClkGateDist::max_value     14319000                       # Distribution of time spent in the clock gated state
system.cpu0.pwrStateClkGateDist::total              1                       # Distribution of time spent in the clock gated state
system.cpu0.pwrStateResidencyTicks::ON    85511527000                       # Cumulative time (in ticks) in various power states
system.cpu0.pwrStateResidencyTicks::CLK_GATED     14319000                       # Cumulative time (in ticks) in various power states
system.cpu0.numCycles                       171051692                       # number of cpu cycles simulated
system.cpu0.numWorkItemsStarted                     0                       # number of work items this cpu started
system.cpu0.numWorkItemsCompleted                   0                       # number of work items this cpu completed
system.cpu0.committedInsts                   33573962                       # Number of instructions committed
system.cpu0.committedOps                     67728799                       # Number of ops (including micro ops) committed
system.cpu0.num_int_alu_accesses             65230459                       # Number of integer alu accesses
system.cpu0.num_fp_alu_accesses               4362365                       # Number of float alu accesses
system.cpu0.num_vec_alu_accesses                    0                       # Number of vector alu accesses
system.cpu0.num_func_calls                    1761178                       # number of times a function call or return occured
system.cpu0.num_conditional_control_insts      6569628                       # number of instructions that are conditional controls
system.cpu0.num_int_insts                    65230459                       # number of integer instructions
system.cpu0.num_fp_insts                      4362365                       # number of float instructions
system.cpu0.num_vec_insts                           0                       # number of vector instructions
system.cpu0.num_int_register_reads          124253283                       # number of times the integer registers were read
system.cpu0.num_int_register_writes          51294004                       # number of times the integer registers were written
system.cpu0.num_fp_register_reads             6279594                       # number of times the floating registers were read
system.cpu0.num_fp_register_writes            2983627                       # number of times the floating registers were written
system.cpu0.num_vec_register_reads                  0                       # number of times the vector registers were read
system.cpu0.num_vec_register_writes                 0                       # number of times the vector registers were written
system.cpu0.num_cc_register_reads            40705684                       # number of times the CC registers were read
system.cpu0.num_cc_register_writes           22661011                       # number of times the CC registers were written
system.cpu0.num_mem_refs                     14624730                       # number of memory refs
system.cpu0.num_load_insts                   10227751                       # Number of load instructions
system.cpu0.num_store_insts                   4396979                       # Number of store instructions
system.cpu0.num_idle_cycles              28638.000000                       # Number of idle cycles
system.cpu0.num_busy_cycles              171023054.000000                       # Number of busy cycles
system.cpu0.not_idle_fraction                0.999833                       # Percentage of non-idle cycles
system.cpu0.idle_fraction                    0.000167                       # Percentage of idle cycles
system.cpu0.Branches                          8842291                       # Number of branches fetched
system.cpu0.op_class::No_OpClass               157301      0.23%      0.23% # Class of executed instruction
system.cpu0.op_class::IntAlu                 50576715     74.68%     74.91% # Class of executed instruction
system.cpu0.op_class::IntMult                  264699      0.39%     75.30% # Class of executed instruction
system.cpu0.op_class::IntDiv                   134417      0.20%     75.50% # Class of executed instruction
system.cpu0.op_class::FloatAdd                   7474      0.01%     75.51% # Class of executed instruction
system.cpu0.op_class::FloatCmp                      5      0.00%     75.51% # Class of executed instruction
system.cpu0.op_class::FloatCvt                   8352      0.01%     75.52% # Class of executed instruction
system.cpu0.op_class::FloatMult                     6      0.00%     75.52% # Class of executed instruction
system.cpu0.op_class::FloatMultAcc                  0      0.00%     75.52% # Class of executed instruction
system.cpu0.op_class::FloatDiv                      5      0.00%     75.52% # Class of executed instruction
system.cpu0.op_class::FloatMisc                     0      0.00%     75.52% # Class of executed instruction
system.cpu0.op_class::FloatSqrt                     0      0.00%     75.52% # Class of executed instruction
system.cpu0.op_class::SimdAdd                   51960      0.08%     75.60% # Class of executed instruction
system.cpu0.op_class::SimdAddAcc                    0      0.00%     75.60% # Class of executed instruction
system.cpu0.op_class::SimdAlu                  535776      0.79%     76.39% # Class of executed instruction
system.cpu0.op_class::SimdCmp                    1024      0.00%     76.39% # Class of executed instruction
system.cpu0.op_class::SimdCvt                  112010      0.17%     76.55% # Class of executed instruction
system.cpu0.op_class::SimdMisc                 296511      0.44%     76.99% # Class of executed instruction
system.cpu0.op_class::SimdMult                      0      0.00%     76.99% # Class of executed instruction
system.cpu0.op_class::SimdMultAcc                   0      0.00%     76.99% # Class of executed instruction
system.cpu0.op_class::SimdShift                 27427      0.04%     77.03% # Class of executed instruction
system.cpu0.op_class::SimdShiftAcc                  0      0.00%     77.03% # Class of executed instruction
system.cpu0.op_class::SimdSqrt                      0      0.00%     77.03% # Class of executed instruction
system.cpu0.op_class::SimdFloatAdd             232591      0.34%     77.38% # Class of executed instruction
system.cpu0.op_class::SimdFloatAlu                  0      0.00%     77.38% # Class of executed instruction
system.cpu0.op_class::SimdFloatCmp                  0      0.00%     77.38% # Class of executed instruction
system.cpu0.op_class::SimdFloatCvt             465202      0.69%     78.06% # Class of executed instruction
system.cpu0.op_class::SimdFloatDiv                  5      0.00%     78.06% # Class of executed instruction
system.cpu0.op_class::SimdFloatMisc                 0      0.00%     78.06% # Class of executed instruction
system.cpu0.op_class::SimdFloatMult            232597      0.34%     78.41% # Class of executed instruction
system.cpu0.op_class::SimdFloatMultAcc              0      0.00%     78.41% # Class of executed instruction
system.cpu0.op_class::SimdFloatSqrt                 0      0.00%     78.41% # Class of executed instruction
system.cpu0.op_class::MemRead                 9387350     13.86%     92.27% # Class of executed instruction
system.cpu0.op_class::MemWrite                3317259      4.90%     97.16% # Class of executed instruction
system.cpu0.op_class::FloatMemRead             840401      1.24%     98.41% # Class of executed instruction
system.cpu0.op_class::FloatMemWrite           1079720      1.59%    100.00% # Class of executed instruction
system.cpu0.op_class::IprAccess                     0      0.00%    100.00% # Class of executed instruction
system.cpu0.op_class::InstPrefetch                  0      0.00%    100.00% # Class of executed instruction
system.cpu0.op_class::total                  67728807                       # Class of executed instruction
system.cpu1.clk_domain.voltage_domain.voltage            1                       # Voltage in Volts
system.cpu1.clk_domain.clock                      500                       # Clock period in ticks
system.cpu1.dtb.walker.pwrStateResidencyTicks::UNDEFINED  85525846000                       # Cumulative time (in ticks) in various power states
system.cpu1.dtb.rdAccesses                     320523                       # TLB accesses on read requests
system.cpu1.dtb.wrAccesses                      28209                       # TLB accesses on write requests
system.cpu1.dtb.rdMisses                          237                       # TLB misses on read requests
system.cpu1.dtb.wrMisses                            2                       # TLB misses on write requests
system.cpu1.apic_clk_domain.clock                8000                       # Clock period in ticks
system.cpu1.interrupts.pwrStateResidencyTicks::UNDEFINED  85525846000                       # Cumulative time (in ticks) in various power states
system.cpu1.itb.walker.pwrStateResidencyTicks::UNDEFINED  85525846000                       # Cumulative time (in ticks) in various power states
system.cpu1.itb.rdAccesses                          0                       # TLB accesses on read requests
system.cpu1.itb.wrAccesses                     884203                       # TLB accesses on write requests
system.cpu1.itb.rdMisses                            0                       # TLB misses on read requests
system.cpu1.itb.wrMisses                          150                       # TLB misses on write requests
system.cpu1.numPwrStateTransitions                  6                       # Number of power state transitions
system.cpu1.pwrStateClkGateDist::samples            3                       # Distribution of time spent in the clock gated state
system.cpu1.pwrStateClkGateDist::mean    16672048666.666666                       # Distribution of time spent in the clock gated state
system.cpu1.pwrStateClkGateDist::stdev   10814190314.122231                       # Distribution of time spent in the clock gated state
system.cpu1.pwrStateClkGateDist::1000-5e+10            3    100.00%    100.00% # Distribution of time spent in the clock gated state
system.cpu1.pwrStateClkGateDist::min_value   6692008500                       # Distribution of time spent in the clock gated state
system.cpu1.pwrStateClkGateDist::max_value  28161746500                       # Distribution of time spent in the clock gated state
system.cpu1.pwrStateClkGateDist::total              3                       # Distribution of time spent in the clock gated state
system.cpu1.pwrStateResidencyTicks::ON    35509700000                       # Cumulative time (in ticks) in various power states
system.cpu1.pwrStateResidencyTicks::CLK_GATED  50016146000                       # Cumulative time (in ticks) in various power states
system.cpu1.numCycles                       170672679                       # number of cpu cycles simulated
system.cpu1.numWorkItemsStarted                     0                       # number of work items this cpu started
system.cpu1.numWorkItemsCompleted                   0                       # number of work items this cpu completed
system.cpu1.committedInsts                     662236                       # Number of instructions committed
system.cpu1.committedOps                      1280350                       # Number of ops (including micro ops) committed
system.cpu1.num_int_alu_accesses              1246877                       # Number of integer alu accesses
system.cpu1.num_fp_alu_accesses                 56633                       # Number of float alu accesses
system.cpu1.num_vec_alu_accesses                    0                       # Number of vector alu accesses
system.cpu1.num_func_calls                      50815                       # number of times a function call or return occured
system.cpu1.num_conditional_control_insts       138481                       # number of instructions that are conditional controls
system.cpu1.num_int_insts                     1246877                       # number of integer instructions
system.cpu1.num_fp_insts                        56633                       # number of float instructions
system.cpu1.num_vec_insts                           0                       # number of vector instructions
system.cpu1.num_int_register_reads            2428072                       # number of times the integer registers were read
system.cpu1.num_int_register_writes            993724                       # number of times the integer registers were written
system.cpu1.num_fp_register_reads               80445                       # number of times the floating registers were read
system.cpu1.num_fp_register_writes              46986                       # number of times the floating registers were written
system.cpu1.num_vec_register_reads                  0                       # number of times the vector registers were read
system.cpu1.num_vec_register_writes                 0                       # number of times the vector registers were written
system.cpu1.num_cc_register_reads              953675                       # number of times the CC registers were read
system.cpu1.num_cc_register_writes             377363                       # number of times the CC registers were written
system.cpu1.num_mem_refs                       348732                       # number of memory refs
system.cpu1.num_load_insts                     320523                       # Number of load instructions
system.cpu1.num_store_insts                     28209                       # Number of store instructions
system.cpu1.num_idle_cycles              169303663.174917                       # Number of idle cycles
system.cpu1.num_busy_cycles              1369015.825083                       # Number of busy cycles
system.cpu1.not_idle_fraction                0.008021                       # Percentage of non-idle cycles
system.cpu1.idle_fraction                    0.991979                       # Percentage of idle cycles
system.cpu1.Branches                           202193                       # Number of branches fetched
system.cpu1.op_class::No_OpClass                  500      0.04%      0.04% # Class of executed instruction
system.cpu1.op_class::IntAlu                   893385     69.78%     69.82% # Class of executed instruction
system.cpu1.op_class::IntMult                       5      0.00%     69.82% # Class of executed instruction
system.cpu1.op_class::IntDiv                      124      0.01%     69.83% # Class of executed instruction
system.cpu1.op_class::FloatAdd                     58      0.00%     69.83% # Class of executed instruction
system.cpu1.op_class::FloatCmp                      0      0.00%     69.83% # Class of executed instruction
system.cpu1.op_class::FloatCvt                     96      0.01%     69.84% # Class of executed instruction
system.cpu1.op_class::FloatMult                     0      0.00%     69.84% # Class of executed instruction
system.cpu1.op_class::FloatMultAcc                  0      0.00%     69.84% # Class of executed instruction
system.cpu1.op_class::FloatDiv                      0      0.00%     69.84% # Class of executed instruction
system.cpu1.op_class::FloatMisc                     0      0.00%     69.84% # Class of executed instruction
system.cpu1.op_class::FloatSqrt                     0      0.00%     69.84% # Class of executed instruction
system.cpu1.op_class::SimdAdd                     292      0.02%     69.86% # Class of executed instruction
system.cpu1.op_class::SimdAddAcc                    0      0.00%     69.86% # Class of executed instruction
system.cpu1.op_class::SimdAlu                    9290      0.73%     70.59% # Class of executed instruction
system.cpu1.op_class::SimdCmp                       0      0.00%     70.59% # Class of executed instruction
system.cpu1.op_class::SimdCvt                     584      0.05%     70.63% # Class of executed instruction
system.cpu1.op_class::SimdMisc                   4811      0.38%     71.01% # Class of executed instruction
system.cpu1.op_class::SimdMult                      0      0.00%     71.01% # Class of executed instruction
system.cpu1.op_class::SimdMultAcc                   0      0.00%     71.01% # Class of executed instruction
system.cpu1.op_class::SimdShift                    95      0.01%     71.01% # Class of executed instruction
system.cpu1.op_class::SimdShiftAcc                  0      0.00%     71.01% # Class of executed instruction
system.cpu1.op_class::SimdSqrt                      0      0.00%     71.01% # Class of executed instruction
system.cpu1.op_class::SimdFloatAdd               4476      0.35%     71.36% # Class of executed instruction
system.cpu1.op_class::SimdFloatAlu                  0      0.00%     71.36% # Class of executed instruction
system.cpu1.op_class::SimdFloatCmp                  0      0.00%     71.36% # Class of executed instruction
system.cpu1.op_class::SimdFloatCvt              13418      1.05%     72.41% # Class of executed instruction
system.cpu1.op_class::SimdFloatDiv                  9      0.00%     72.41% # Class of executed instruction
system.cpu1.op_class::SimdFloatMisc                 0      0.00%     72.41% # Class of executed instruction
system.cpu1.op_class::SimdFloatMult              4475      0.35%     72.76% # Class of executed instruction
system.cpu1.op_class::SimdFloatMultAcc              0      0.00%     72.76% # Class of executed instruction
system.cpu1.op_class::SimdFloatSqrt                 0      0.00%     72.76% # Class of executed instruction
system.cpu1.op_class::MemRead                  301851     23.58%     96.34% # Class of executed instruction
system.cpu1.op_class::MemWrite                  27889      2.18%     98.52% # Class of executed instruction
system.cpu1.op_class::FloatMemRead              18672      1.46%     99.98% # Class of executed instruction
system.cpu1.op_class::FloatMemWrite               320      0.02%    100.00% # Class of executed instruction
system.cpu1.op_class::IprAccess                     0      0.00%    100.00% # Class of executed instruction
system.cpu1.op_class::InstPrefetch                  0      0.00%    100.00% # Class of executed instruction
system.cpu1.op_class::total                   1280350                       # Class of executed instruction
system.cpu2.CUs0.localDataStore.pwrStateResidencyTicks::UNDEFINED  85525846000                       # Cumulative time (in ticks) in various power states
system.cpu2.CUs0.scalar_register_file0.register_reads           85                       # Total number of DWORDs read from register file
system.cpu2.CUs0.scalar_register_file0.register_writes           95                       # Total number of DWORDS written to register file
system.cpu2.CUs0.scalar_register_file0.sram_reads            0                       # Total number of register file bank SRAM activations for reads
system.cpu2.CUs0.scalar_register_file0.sram_writes            0                       # Total number of register file bank SRAM activations for writes
system.cpu2.CUs0.scalar_register_file1.register_reads           43                       # Total number of DWORDs read from register file
system.cpu2.CUs0.scalar_register_file1.register_writes           47                       # Total number of DWORDS written to register file
system.cpu2.CUs0.scalar_register_file1.sram_reads            0                       # Total number of register file bank SRAM activations for reads
system.cpu2.CUs0.scalar_register_file1.sram_writes            0                       # Total number of register file bank SRAM activations for writes
system.cpu2.CUs0.scalar_register_file2.register_reads           43                       # Total number of DWORDs read from register file
system.cpu2.CUs0.scalar_register_file2.register_writes           47                       # Total number of DWORDS written to register file
system.cpu2.CUs0.scalar_register_file2.sram_reads            0                       # Total number of register file bank SRAM activations for reads
system.cpu2.CUs0.scalar_register_file2.sram_writes            0                       # Total number of register file bank SRAM activations for writes
system.cpu2.CUs0.scalar_register_file3.register_reads           43                       # Total number of DWORDs read from register file
system.cpu2.CUs0.scalar_register_file3.register_writes           47                       # Total number of DWORDS written to register file
system.cpu2.CUs0.scalar_register_file3.sram_reads            0                       # Total number of register file bank SRAM activations for reads
system.cpu2.CUs0.scalar_register_file3.sram_writes            0                       # Total number of register file bank SRAM activations for writes
system.cpu2.CUs0.vector_register_file0.register_reads         3715                       # Total number of DWORDs read from register file
system.cpu2.CUs0.vector_register_file0.register_writes         2151                       # Total number of DWORDS written to register file
system.cpu2.CUs0.vector_register_file0.sram_reads          979                       # Total number of register file bank SRAM activations for reads
system.cpu2.CUs0.vector_register_file0.sram_writes          567                       # Total number of register file bank SRAM activations for writes
system.cpu2.CUs0.vector_register_file1.register_reads         3648                       # Total number of DWORDs read from register file
system.cpu2.CUs0.vector_register_file1.register_writes         2112                       # Total number of DWORDS written to register file
system.cpu2.CUs0.vector_register_file1.sram_reads          912                       # Total number of register file bank SRAM activations for reads
system.cpu2.CUs0.vector_register_file1.sram_writes          528                       # Total number of register file bank SRAM activations for writes
system.cpu2.CUs0.vector_register_file2.register_reads         3648                       # Total number of DWORDs read from register file
system.cpu2.CUs0.vector_register_file2.register_writes         2112                       # Total number of DWORDS written to register file
system.cpu2.CUs0.vector_register_file2.sram_reads          912                       # Total number of register file bank SRAM activations for reads
system.cpu2.CUs0.vector_register_file2.sram_writes          528                       # Total number of register file bank SRAM activations for writes
system.cpu2.CUs0.vector_register_file3.register_reads         3648                       # Total number of DWORDs read from register file
system.cpu2.CUs0.vector_register_file3.register_writes         2112                       # Total number of DWORDS written to register file
system.cpu2.CUs0.vector_register_file3.sram_reads          912                       # Total number of register file bank SRAM activations for reads
system.cpu2.CUs0.vector_register_file3.sram_writes          528                       # Total number of register file bank SRAM activations for writes
system.cpu2.CUs0.wavefronts00.num_instr_executed          108                       # number of instructions executed by this WF slot
system.cpu2.CUs0.wavefronts00.sch_cycles          255                       # number of cycles spent in schedule stage
system.cpu2.CUs0.wavefronts00.sch_stalls          147                       # number of cycles WF is stalled in SCH stage
system.cpu2.CUs0.wavefronts00.sch_rf_access_stalls            0                       # number of cycles wave selected in SCH but RF denied adding instruction
system.cpu2.CUs0.wavefronts00.sch_resource_stalls          140                       # number of cycles stalled in sch by resource not available
system.cpu2.CUs0.wavefronts00.sch_opd_nrdy_stalls            0                       # number of cycles stalled in sch waiting for RF reads to complete
system.cpu2.CUs0.wavefronts00.sch_lds_arb_stalls            0                       # number of cycles wave stalled due to LDS-VRF arbitration
system.cpu2.CUs0.wavefronts00.timesBlockedDueWAXDependencies            0                       # number of times the wf's instructions are blocked due to WAW or WAR dependencies
system.cpu2.CUs0.wavefronts00.timesBlockedDueRAWDependencies          260                       # number of times the wf's instructions are blocked due to RAW dependencies
system.cpu2.CUs0.wavefronts00.vec_raw_distance::samples          124                       # Count of RAW distance in dynamic instructions for this WF
system.cpu2.CUs0.wavefronts00.vec_raw_distance::mean     9.532258                       # Count of RAW distance in dynamic instructions for this WF
system.cpu2.CUs0.wavefronts00.vec_raw_distance::stdev    15.686168                       # Count of RAW distance in dynamic instructions for this WF
system.cpu2.CUs0.wavefronts00.vec_raw_distance::underflows            0      0.00%      0.00% # Count of RAW distance in dynamic instructions for this WF
system.cpu2.CUs0.wavefronts00.vec_raw_distance::0            0      0.00%      0.00% # Count of RAW distance in dynamic instructions for this WF
system.cpu2.CUs0.wavefronts00.vec_raw_distance::1           33     26.61%     26.61% # Count of RAW distance in dynamic instructions for this WF
system.cpu2.CUs0.wavefronts00.vec_raw_distance::2           33     26.61%     53.23% # Count of RAW distance in dynamic instructions for this WF
system.cpu2.CUs0.wavefronts00.vec_raw_distance::3            6      4.84%     58.06% # Count of RAW distance in dynamic instructions for this WF
system.cpu2.CUs0.wavefronts00.vec_raw_distance::4            4      3.23%     61.29% # Count of RAW distance in dynamic instructions for this WF
system.cpu2.CUs0.wavefronts00.vec_raw_distance::5            5      4.03%     65.32% # Count of RAW distance in dynamic instructions for this WF
system.cpu2.CUs0.wavefronts00.vec_raw_distance::6            6      4.84%     70.16% # Count of RAW distance in dynamic instructions for this WF
system.cpu2.CUs0.wavefronts00.vec_raw_distance::7            4      3.23%     73.39% # Count of RAW distance in dynamic instructions for this WF
system.cpu2.CUs0.wavefronts00.vec_raw_distance::8            3      2.42%     75.81% # Count of RAW distance in dynamic instructions for this WF
system.cpu2.CUs0.wavefronts00.vec_raw_distance::9            4      3.23%     79.03% # Count of RAW distance in dynamic instructions for this WF
system.cpu2.CUs0.wavefronts00.vec_raw_distance::10            3      2.42%     81.45% # Count of RAW distance in dynamic instructions for this WF
system.cpu2.CUs0.wavefronts00.vec_raw_distance::11            2      1.61%     83.06% # Count of RAW distance in dynamic instructions for this WF
system.cpu2.CUs0.wavefronts00.vec_raw_distance::12            1      0.81%     83.87% # Count of RAW distance in dynamic instructions for this WF
system.cpu2.CUs0.wavefronts00.vec_raw_distance::13            1      0.81%     84.68% # Count of RAW distance in dynamic instructions for this WF
system.cpu2.CUs0.wavefronts00.vec_raw_distance::14            0      0.00%     84.68% # Count of RAW distance in dynamic instructions for this WF
system.cpu2.CUs0.wavefronts00.vec_raw_distance::15            0      0.00%     84.68% # Count of RAW distance in dynamic instructions for this WF
system.cpu2.CUs0.wavefronts00.vec_raw_distance::16            0      0.00%     84.68% # Count of RAW distance in dynamic instructions for this WF
system.cpu2.CUs0.wavefronts00.vec_raw_distance::17            0      0.00%     84.68% # Count of RAW distance in dynamic instructions for this WF
system.cpu2.CUs0.wavefronts00.vec_raw_distance::18            0      0.00%     84.68% # Count of RAW distance in dynamic instructions for this WF
system.cpu2.CUs0.wavefronts00.vec_raw_distance::19            0      0.00%     84.68% # Count of RAW distance in dynamic instructions for this WF
system.cpu2.CUs0.wavefronts00.vec_raw_distance::20            1      0.81%     85.48% # Count of RAW distance in dynamic instructions for this WF
system.cpu2.CUs0.wavefronts00.vec_raw_distance::overflows           18     14.52%    100.00% # Count of RAW distance in dynamic instructions for this WF
system.cpu2.CUs0.wavefronts00.vec_raw_distance::min_value            1                       # Count of RAW distance in dynamic instructions for this WF
system.cpu2.CUs0.wavefronts00.vec_raw_distance::max_value           73                       # Count of RAW distance in dynamic instructions for this WF
system.cpu2.CUs0.wavefronts00.vec_raw_distance::total          124                       # Count of RAW distance in dynamic instructions for this WF
system.cpu2.CUs0.wavefronts00.vec_reads_per_write::samples           73                       # Count of Vector reads per write for this WF
system.cpu2.CUs0.wavefronts00.vec_reads_per_write::mean     1.698630                       # Count of Vector reads per write for this WF
system.cpu2.CUs0.wavefronts00.vec_reads_per_write::stdev     1.846054                       # Count of Vector reads per write for this WF
system.cpu2.CUs0.wavefronts00.vec_reads_per_write::underflows            0      0.00%      0.00% # Count of Vector reads per write for this WF
system.cpu2.CUs0.wavefronts00.vec_reads_per_write::0            0      0.00%      0.00% # Count of Vector reads per write for this WF
system.cpu2.CUs0.wavefronts00.vec_reads_per_write::1           50     68.49%     68.49% # Count of Vector reads per write for this WF
system.cpu2.CUs0.wavefronts00.vec_reads_per_write::2           14     19.18%     87.67% # Count of Vector reads per write for this WF
system.cpu2.CUs0.wavefronts00.vec_reads_per_write::3            3      4.11%     91.78% # Count of Vector reads per write for this WF
system.cpu2.CUs0.wavefronts00.vec_reads_per_write::4            3      4.11%     95.89% # Count of Vector reads per write for this WF
system.cpu2.CUs0.wavefronts00.vec_reads_per_write::overflows            3      4.11%    100.00% # Count of Vector reads per write for this WF
system.cpu2.CUs0.wavefronts00.vec_reads_per_write::min_value            1                       # Count of Vector reads per write for this WF
system.cpu2.CUs0.wavefronts00.vec_reads_per_write::max_value           15                       # Count of Vector reads per write for this WF
system.cpu2.CUs0.wavefronts00.vec_reads_per_write::total           73                       # Count of Vector reads per write for this WF
system.cpu2.CUs0.wavefronts01.num_instr_executed            0                       # number of instructions executed by this WF slot
system.cpu2.CUs0.wavefronts01.sch_cycles            0                       # number of cycles spent in schedule stage
system.cpu2.CUs0.wavefronts01.sch_stalls            0                       # number of cycles WF is stalled in SCH stage
system.cpu2.CUs0.wavefronts01.sch_rf_access_stalls            0                       # number of cycles wave selected in SCH but RF denied adding instruction
system.cpu2.CUs0.wavefronts01.sch_resource_stalls            0                       # number of cycles stalled in sch by resource not available
system.cpu2.CUs0.wavefronts01.sch_opd_nrdy_stalls            0                       # number of cycles stalled in sch waiting for RF reads to complete
system.cpu2.CUs0.wavefronts01.sch_lds_arb_stalls            0                       # number of cycles wave stalled due to LDS-VRF arbitration
system.cpu2.CUs0.wavefronts01.timesBlockedDueWAXDependencies            0                       # number of times the wf's instructions are blocked due to WAW or WAR dependencies
system.cpu2.CUs0.wavefronts01.timesBlockedDueRAWDependencies            0                       # number of times the wf's instructions are blocked due to RAW dependencies
system.cpu2.CUs0.wavefronts01.vec_raw_distance::samples            0                       # Count of RAW distance in dynamic instructions for this WF
system.cpu2.CUs0.wavefronts01.vec_raw_distance::mean          nan                       # Count of RAW distance in dynamic instructions for this WF
system.cpu2.CUs0.wavefronts01.vec_raw_distance::stdev          nan                       # Count of RAW distance in dynamic instructions for this WF
system.cpu2.CUs0.wavefronts01.vec_raw_distance::underflows            0                       # Count of RAW distance in dynamic instructions for this WF
system.cpu2.CUs0.wavefronts01.vec_raw_distance::0            0                       # Count of RAW distance in dynamic instructions for this WF
system.cpu2.CUs0.wavefronts01.vec_raw_distance::1            0                       # Count of RAW distance in dynamic instructions for this WF
system.cpu2.CUs0.wavefronts01.vec_raw_distance::2            0                       # Count of RAW distance in dynamic instructions for this WF
system.cpu2.CUs0.wavefronts01.vec_raw_distance::3            0                       # Count of RAW distance in dynamic instructions for this WF
system.cpu2.CUs0.wavefronts01.vec_raw_distance::4            0                       # Count of RAW distance in dynamic instructions for this WF
system.cpu2.CUs0.wavefronts01.vec_raw_distance::5            0                       # Count of RAW distance in dynamic instructions for this WF
system.cpu2.CUs0.wavefronts01.vec_raw_distance::6            0                       # Count of RAW distance in dynamic instructions for this WF
[...]
system.ruby.Locked_RMW_Write.L1Cache.miss_type_mach_latency_hist_seqr::samples        81421                      
system.ruby.Locked_RMW_Write.L1Cache.miss_type_mach_latency_hist_seqr::mean            1                      
system.ruby.Locked_RMW_Write.L1Cache.miss_type_mach_latency_hist_seqr::gmean            1                      
system.ruby.Locked_RMW_Write.L1Cache.miss_type_mach_latency_hist_seqr |           0      0.00%      0.00% |       81421    100.00%    100.00% |           0      0.00%    100.00% |           0      0.00%    100.00% |           0      0.00%    100.00% |           0      0.00%    100.00% |           0      0.00%    100.00% |           0      0.00%    100.00% |           0      0.00%    100.00% |           0      0.00%    100.00%
system.ruby.Locked_RMW_Write.L1Cache.miss_type_mach_latency_hist_seqr::total        81421                      
system.ruby.CorePair_Controller.C0_Load_L1miss      2166917      0.00%      0.00%
system.ruby.CorePair_Controller.C0_Load_L1hit      7926553      0.00%      0.00%
system.ruby.CorePair_Controller.C1_Load_L1miss          599      0.00%      0.00%
system.ruby.CorePair_Controller.C1_Load_L1hit       319795      0.00%      0.00%
system.ruby.CorePair_Controller.Ifetch0_L1hit     44325232      0.00%      0.00%
system.ruby.CorePair_Controller.Ifetch1_L1hit       883742      0.00%      0.00%
system.ruby.CorePair_Controller.Ifetch0_L1miss        94411      0.00%      0.00%
system.ruby.CorePair_Controller.Ifetch1_L1miss          463      0.00%      0.00%
system.ruby.CorePair_Controller.C0_Store_L1miss       213007      0.00%      0.00%
system.ruby.CorePair_Controller.C0_Store_L1hit      4319729      0.00%      0.00%
system.ruby.CorePair_Controller.C1_Store_L1miss          116      0.00%      0.00%
system.ruby.CorePair_Controller.C1_Store_L1hit        28222      0.00%      0.00%
system.ruby.CorePair_Controller.NB_AckS         11225      0.00%      0.00%
system.ruby.CorePair_Controller.NB_AckM        197924      0.00%      0.00%
system.ruby.CorePair_Controller.NB_AckE         70218      0.00%      0.00%
system.ruby.CorePair_Controller.NB_AckWB       246580      0.00%      0.00%
system.ruby.CorePair_Controller.L1I_Repl        92240      0.00%      0.00%
system.ruby.CorePair_Controller.L1D0_Repl      2378841      0.00%      0.00%
system.ruby.CorePair_Controller.L1D1_Repl           59      0.00%      0.00%
system.ruby.CorePair_Controller.L2_Repl        246580      0.00%      0.00%
system.ruby.CorePair_Controller.L2_to_L1D0      2096862      0.00%      0.00%
system.ruby.CorePair_Controller.L2_to_L1D1          436      0.00%      0.00%
system.ruby.CorePair_Controller.L2_to_L1I        83649      0.00%      0.00%
system.ruby.CorePair_Controller.PrbInvData            4      0.00%      0.00%
system.ruby.CorePair_Controller.PrbShrData           21      0.00%      0.00%
system.ruby.CorePair_Controller.I.C0_Load_L1miss        70055      0.00%      0.00%
system.ruby.CorePair_Controller.I.C1_Load_L1miss          163      0.00%      0.00%
system.ruby.CorePair_Controller.I.Ifetch0_L1miss        10904      0.00%      0.00%
system.ruby.CorePair_Controller.I.Ifetch1_L1miss          306      0.00%      0.00%
system.ruby.CorePair_Controller.I.C0_Store_L1miss       197822      0.00%      0.00%
system.ruby.CorePair_Controller.I.C1_Store_L1miss          100      0.00%      0.00%
system.ruby.CorePair_Controller.I.PrbInvData            1      0.00%      0.00%
system.ruby.CorePair_Controller.S.C0_Load_L1miss            3      0.00%      0.00%
system.ruby.CorePair_Controller.S.C0_Load_L1hit            6      0.00%      0.00%
system.ruby.CorePair_Controller.S.Ifetch0_L1hit     44325232      0.00%      0.00%
system.ruby.CorePair_Controller.S.Ifetch1_L1hit       883740      0.00%      0.00%
system.ruby.CorePair_Controller.S.Ifetch0_L1miss        83492      0.00%      0.00%
system.ruby.CorePair_Controller.S.Ifetch1_L1miss          157      0.00%      0.00%
system.ruby.CorePair_Controller.S.L1I_Repl        92240      0.00%      0.00%
system.ruby.CorePair_Controller.S.L1D0_Repl            3      0.00%      0.00%
system.ruby.CorePair_Controller.S.L2_Repl         7381      0.00%      0.00%
system.ruby.CorePair_Controller.E0.C0_Load_L1miss      1995708      0.00%      0.00%
system.ruby.CorePair_Controller.E0.C0_Load_L1hit      1440147      0.00%      0.00%
system.ruby.CorePair_Controller.E0.C1_Load_L1miss          320      0.00%      0.00%
system.ruby.CorePair_Controller.E0.Ifetch0_L1miss           15      0.00%      0.00%
system.ruby.CorePair_Controller.E0.C0_Store_L1miss          442      0.00%      0.00%
system.ruby.CorePair_Controller.E0.C0_Store_L1hit        11271      0.00%      0.00%
system.ruby.CorePair_Controller.E0.L1D0_Repl      2053836      0.00%      0.00%
system.ruby.CorePair_Controller.E0.L2_Repl        54641      0.00%      0.00%
system.ruby.CorePair_Controller.E0.PrbInvData            2      0.00%      0.00%
system.ruby.CorePair_Controller.E1.C0_Load_L1miss           30      0.00%      0.00%
system.ruby.CorePair_Controller.E1.C1_Load_L1hit        23554      0.00%      0.00%
system.ruby.CorePair_Controller.E1.C1_Store_L1hit           43      0.00%      0.00%
system.ruby.CorePair_Controller.E1.L1D1_Repl            3      0.00%      0.00%
system.ruby.CorePair_Controller.E1.L2_Repl           52      0.00%      0.00%
system.ruby.CorePair_Controller.Es.C0_Load_L1miss         4655      0.00%      0.00%
system.ruby.CorePair_Controller.Es.C0_Load_L1hit       153037      0.00%      0.00%
system.ruby.CorePair_Controller.Es.C1_Load_L1miss           23      0.00%      0.00%
system.ruby.CorePair_Controller.Es.C1_Load_L1hit        52398      0.00%      0.00%
system.ruby.CorePair_Controller.Es.C0_Store_L1hit           16      0.00%      0.00%
system.ruby.CorePair_Controller.Es.C1_Store_L1hit            6      0.00%      0.00%
system.ruby.CorePair_Controller.Es.L1D0_Repl         4824      0.00%      0.00%
system.ruby.CorePair_Controller.Es.L1D1_Repl           34      0.00%      0.00%
system.ruby.CorePair_Controller.Es.L2_Repl          196      0.00%      0.00%
system.ruby.CorePair_Controller.O.C0_Load_L1miss            1      0.00%      0.00%
system.ruby.CorePair_Controller.O.C0_Load_L1hit            3      0.00%      0.00%
system.ruby.CorePair_Controller.O.C0_Store_L1miss            1      0.00%      0.00%
system.ruby.CorePair_Controller.O.C0_Store_L1hit            1      0.00%      0.00%
system.ruby.CorePair_Controller.O.L1D0_Repl            8      0.00%      0.00%
system.ruby.CorePair_Controller.O.L2_Repl            4      0.00%      0.00%
system.ruby.CorePair_Controller.O.PrbInvData            1      0.00%      0.00%
system.ruby.CorePair_Controller.O.PrbShrData            2      0.00%      0.00%
system.ruby.CorePair_Controller.Ms.C0_Load_L1miss           23      0.00%      0.00%
system.ruby.CorePair_Controller.Ms.C0_Load_L1hit         1640      0.00%      0.00%
system.ruby.CorePair_Controller.Ms.C1_Load_L1miss            2      0.00%      0.00%
system.ruby.CorePair_Controller.Ms.C1_Load_L1hit        43795      0.00%      0.00%
system.ruby.CorePair_Controller.Ms.C0_Store_L1hit           53      0.00%      0.00%
system.ruby.CorePair_Controller.Ms.C1_Store_L1hit           29      0.00%      0.00%
system.ruby.CorePair_Controller.Ms.L1D0_Repl           49      0.00%      0.00%
system.ruby.CorePair_Controller.Ms.L1D1_Repl            6      0.00%      0.00%
system.ruby.CorePair_Controller.Ms.L2_Repl           25      0.00%      0.00%
system.ruby.CorePair_Controller.M0.C0_Load_L1miss        96411      0.00%      0.00%
system.ruby.CorePair_Controller.M0.C0_Load_L1hit      6331715      0.00%      0.00%
system.ruby.CorePair_Controller.M0.C1_Load_L1miss           89      0.00%      0.00%
system.ruby.CorePair_Controller.M0.C0_Store_L1miss        14733      0.00%      0.00%
system.ruby.CorePair_Controller.M0.C0_Store_L1hit      4308388      0.00%      0.00%
system.ruby.CorePair_Controller.M0.C1_Store_L1miss           16      0.00%      0.00%
system.ruby.CorePair_Controller.M0.L1D0_Repl       320121      0.00%      0.00%
system.ruby.CorePair_Controller.M0.L2_Repl       184157      0.00%      0.00%
system.ruby.CorePair_Controller.M0.PrbShrData           19      0.00%      0.00%
system.ruby.CorePair_Controller.M1.C0_Load_L1miss           30      0.00%      0.00%
system.ruby.CorePair_Controller.M1.C1_Load_L1miss            2      0.00%      0.00%
system.ruby.CorePair_Controller.M1.C1_Load_L1hit       200048      0.00%      0.00%
system.ruby.CorePair_Controller.M1.C0_Store_L1miss            9      0.00%      0.00%
system.ruby.CorePair_Controller.M1.C1_Store_L1hit        28144      0.00%      0.00%
system.ruby.CorePair_Controller.M1.L1D1_Repl           16      0.00%      0.00%
system.ruby.CorePair_Controller.M1.L2_Repl          124      0.00%      0.00%
system.ruby.CorePair_Controller.I_M0.NB_AckM       197822      0.00%      0.00%
system.ruby.CorePair_Controller.I_M1.C0_Load_L1miss            1      0.00%      0.00%
system.ruby.CorePair_Controller.I_M1.NB_AckM           99      0.00%      0.00%
system.ruby.CorePair_Controller.I_M1Ms.NB_AckM            1      0.00%      0.00%
system.ruby.CorePair_Controller.I_E0S.NB_AckE        70055      0.00%      0.00%
system.ruby.CorePair_Controller.I_E1S.NB_AckE          163      0.00%      0.00%
system.ruby.CorePair_Controller.ES_I.NB_AckWB        62270      0.00%      0.00%
system.ruby.CorePair_Controller.MO_I.NB_AckWB       184310      0.00%      0.00%
system.ruby.CorePair_Controller.S_F0.L2_to_L1D0            3      0.00%      0.00%
system.ruby.CorePair_Controller.O_F0.L2_to_L1D0            1      0.00%      0.00%
system.ruby.CorePair_Controller.Si_F0.Ifetch1_L1hit            2      0.00%      0.00%
system.ruby.CorePair_Controller.Si_F0.L2_to_L1I        83492      0.00%      0.00%
system.ruby.CorePair_Controller.Si_F1.L2_to_L1I          157      0.00%      0.00%
system.ruby.CorePair_Controller.O_M0.NB_AckM            2      0.00%      0.00%
system.ruby.CorePair_Controller.S0.NB_AckS        10919      0.00%      0.00%
system.ruby.CorePair_Controller.S1.NB_AckS          306      0.00%      0.00%
system.ruby.CorePair_Controller.Es_F0.L2_to_L1D0         4655      0.00%      0.00%
system.ruby.CorePair_Controller.Es_F1.L2_to_L1D1           23      0.00%      0.00%
system.ruby.CorePair_Controller.E0_F.L2_to_L1D0      1995708      0.00%      0.00%
system.ruby.CorePair_Controller.E0_Es.C0_Load_L1hit            5      0.00%      0.00%
system.ruby.CorePair_Controller.E0_Es.L2_to_L1D1          320      0.00%      0.00%
system.ruby.CorePair_Controller.E1_Es.L2_to_L1D0           30      0.00%      0.00%
system.ruby.CorePair_Controller.Ms_F0.L2_to_L1D0           23      0.00%      0.00%
system.ruby.CorePair_Controller.Ms_F1.L2_to_L1D1            2      0.00%      0.00%
system.ruby.CorePair_Controller.M0_F.L2_to_L1D0        96411      0.00%      0.00%
system.ruby.CorePair_Controller.M0_Ms.L2_to_L1D1           89      0.00%      0.00%
system.ruby.CorePair_Controller.M1_F.L2_to_L1D1            2      0.00%      0.00%
system.ruby.CorePair_Controller.M1_Ms.L2_to_L1D0           31      0.00%      0.00%
system.ruby.Directory_Controller.RdBlkS         11225      0.00%      0.00%
system.ruby.Directory_Controller.RdBlkM        197924      0.00%      0.00%
system.ruby.Directory_Controller.RdBlk          70231      0.00%      0.00%
system.ruby.Directory_Controller.VicDirty       184310      0.00%      0.00%
system.ruby.Directory_Controller.VicClean        62270      0.00%      0.00%
system.ruby.Directory_Controller.CPUData       246580      0.00%      0.00%
system.ruby.Directory_Controller.CPUPrbResp       279404      0.00%      0.00%
system.ruby.Directory_Controller.ProbeAcksComplete       279392      0.00%      0.00%
system.ruby.Directory_Controller.L3Hit          22749      0.00%      0.00%
system.ruby.Directory_Controller.MemData       256639      0.00%      0.00%
system.ruby.Directory_Controller.WBAck           5085      0.00%      0.00%
system.ruby.Directory_Controller.CoreUnblock       279379      0.00%      0.00%
system.ruby.Directory_Controller.DmaRead            8      0.00%      0.00%
system.ruby.Directory_Controller.DmaWrite            4      0.00%      0.00%
system.ruby.Directory_Controller.U.RdBlkS        11225      0.00%      0.00%
system.ruby.Directory_Controller.U.RdBlkM       197924      0.00%      0.00%
system.ruby.Directory_Controller.U.RdBlk        70231      0.00%      0.00%
system.ruby.Directory_Controller.U.VicDirty       184310      0.00%      0.00%
system.ruby.Directory_Controller.U.VicClean        62270      0.00%      0.00%
system.ruby.Directory_Controller.U.WBAck         5085      0.00%      0.00%
system.ruby.Directory_Controller.U.DmaRead            8      0.00%      0.00%
system.ruby.Directory_Controller.U.DmaWrite            4      0.00%      0.00%
system.ruby.Directory_Controller.BL.CPUData       246580      0.00%      0.00%
system.ruby.Directory_Controller.BDR_M.MemData            1      0.00%      0.00%
system.ruby.Directory_Controller.BS_M.MemData         7328      0.00%      0.00%
system.ruby.Directory_Controller.BM_M.MemData       196840      0.00%      0.00%
system.ruby.Directory_Controller.B_M.MemData        52442      0.00%      0.00%
system.ruby.Directory_Controller.BDR_PM.CPUPrbResp            9      0.00%      0.00%
system.ruby.Directory_Controller.BDR_PM.ProbeAcksComplete            1      0.00%      0.00%
system.ruby.Directory_Controller.BDR_PM.MemData            7      0.00%      0.00%
system.ruby.Directory_Controller.BS_PM.CPUPrbResp         7328      0.00%      0.00%
system.ruby.Directory_Controller.BS_PM.ProbeAcksComplete         7328      0.00%      0.00%
system.ruby.Directory_Controller.BS_PM.L3Hit         3897      0.00%      0.00%
system.ruby.Directory_Controller.BM_PM.CPUPrbResp       196840      0.00%      0.00%
system.ruby.Directory_Controller.BM_PM.ProbeAcksComplete       196840      0.00%      0.00%
system.ruby.Directory_Controller.BM_PM.L3Hit         1081      0.00%      0.00%
system.ruby.Directory_Controller.BM_PM.MemData            3      0.00%      0.00%
system.ruby.Directory_Controller.B_PM.CPUPrbResp        52442      0.00%      0.00%
system.ruby.Directory_Controller.B_PM.ProbeAcksComplete        52442      0.00%      0.00%
system.ruby.Directory_Controller.B_PM.L3Hit        17771      0.00%      0.00%
system.ruby.Directory_Controller.B_PM.MemData           18      0.00%      0.00%
system.ruby.Directory_Controller.BDW_P.CPUPrbResp            8      0.00%      0.00%
system.ruby.Directory_Controller.BDW_P.ProbeAcksComplete            4      0.00%      0.00%
system.ruby.Directory_Controller.BDR_Pm.CPUPrbResp            7      0.00%      0.00%
system.ruby.Directory_Controller.BDR_Pm.ProbeAcksComplete            7      0.00%      0.00%
system.ruby.Directory_Controller.BS_Pm.CPUPrbResp         3897      0.00%      0.00%
system.ruby.Directory_Controller.BS_Pm.ProbeAcksComplete         3897      0.00%      0.00%
system.ruby.Directory_Controller.BM_Pm.CPUPrbResp         1084      0.00%      0.00%
system.ruby.Directory_Controller.BM_Pm.ProbeAcksComplete         1084      0.00%      0.00%
system.ruby.Directory_Controller.B_Pm.CPUPrbResp        17789      0.00%      0.00%
system.ruby.Directory_Controller.B_Pm.ProbeAcksComplete        17789      0.00%      0.00%
system.ruby.Directory_Controller.B.CoreUnblock       279379      0.00%      0.00%
system.ruby.SQC_Controller.Fetch         |         100     74.63%     74.63% |          34     25.37%    100.00%
system.ruby.SQC_Controller.Fetch::total           134                      
system.ruby.SQC_Controller.Data          |          10     83.33%     83.33% |           2     16.67%    100.00%
system.ruby.SQC_Controller.Data::total             12                      
system.ruby.SQC_Controller.I.Fetch       |          10     83.33%     83.33% |           2     16.67%    100.00%
system.ruby.SQC_Controller.I.Fetch::total           12                      
system.ruby.SQC_Controller.I.Data        |          10     83.33%     83.33% |           2     16.67%    100.00%
system.ruby.SQC_Controller.I.Data::total           12                      
system.ruby.SQC_Controller.V.Fetch       |          90     73.77%     73.77% |          32     26.23%    100.00%
system.ruby.SQC_Controller.V.Fetch::total          122                      
system.ruby.TCC_Controller.RdBlk                   17      0.00%      0.00%
system.ruby.TCC_Controller.WrVicBlkBack             1      0.00%      0.00%
system.ruby.TCC_Controller.Data                    13      0.00%      0.00%
system.ruby.TCC_Controller.PrbInv              279379      0.00%      0.00%
system.ruby.TCC_Controller.W.PrbInv                 2      0.00%      0.00%
system.ruby.TCC_Controller.V.RdBlk                  2      0.00%      0.00%
system.ruby.TCC_Controller.V.PrbInv                 2      0.00%      0.00%
system.ruby.TCC_Controller.I.RdBlk                 13      0.00%      0.00%
system.ruby.TCC_Controller.I.WrVicBlkBack            1      0.00%      0.00%
system.ruby.TCC_Controller.I.PrbInv            279375      0.00%      0.00%
system.ruby.TCC_Controller.IV.RdBlk                 2      0.00%      0.00%
system.ruby.TCC_Controller.IV.Data                 13      0.00%      0.00%
system.ruby.TCP_Controller.Load          |           2     40.00%     40.00% |           1     20.00%     60.00% |           1     20.00%     80.00% |           1     20.00%    100.00%
system.ruby.TCP_Controller.Load::total              5                      
system.ruby.TCP_Controller.StoreThrough  |           1    100.00%    100.00% |           0      0.00%    100.00% |           0      0.00%    100.00% |           0      0.00%    100.00%
system.ruby.TCP_Controller.StoreThrough::total            1                      
system.ruby.TCP_Controller.Evict         |         256     25.00%     25.00% |         256     25.00%     50.00% |         256     25.00%     75.00% |         256     25.00%    100.00%
system.ruby.TCP_Controller.Evict::total          1024                      
system.ruby.TCP_Controller.TCC_Ack       |           2     40.00%     40.00% |           1     20.00%     60.00% |           1     20.00%     80.00% |           1     20.00%    100.00%
system.ruby.TCP_Controller.TCC_Ack::total            5                      
system.ruby.TCP_Controller.TCC_AckWB     |           1    100.00%    100.00% |           0      0.00%    100.00% |           0      0.00%    100.00% |           0      0.00%    100.00%
system.ruby.TCP_Controller.TCC_AckWB::total            1                      
system.ruby.TCP_Controller.I.Load        |           2     40.00%     40.00% |           1     20.00%     60.00% |           1     20.00%     80.00% |           1     20.00%    100.00%
system.ruby.TCP_Controller.I.Load::total            5                      
system.ruby.TCP_Controller.I.StoreThrough |           1    100.00%    100.00% |           0      0.00%    100.00% |           0      0.00%    100.00% |           0      0.00%    100.00%
system.ruby.TCP_Controller.I.StoreThrough::total            1                      
system.ruby.TCP_Controller.I.Evict       |         256     25.00%     25.00% |         256     25.00%     50.00% |         256     25.00%     75.00% |         256     25.00%    100.00%
system.ruby.TCP_Controller.I.Evict::total         1024                      
system.ruby.TCP_Controller.I.TCC_Ack     |           2     40.00%     40.00% |           1     20.00%     60.00% |           1     20.00%     80.00% |           1     20.00%    100.00%
system.ruby.TCP_Controller.I.TCC_Ack::total            5                      
system.ruby.TCP_Controller.I.TCC_AckWB   |           1    100.00%    100.00% |           0      0.00%    100.00% |           0      0.00%    100.00% |           0      0.00%    100.00%
system.ruby.TCP_Controller.I.TCC_AckWB::total            1                      

---------- End Simulation Statistics   ----------
