warn: system.ruby.network adopting orphan SimObject param 'int_links'
warn: system.ruby.network adopting orphan SimObject param 'ext_links'
gem5 Simulator System.  http://gem5.org
gem5 is copyrighted software; use the --copyright option for details.

gem5 compiled Apr 27 2020 13:32:49
gem5 started Apr 28 2020 10:53:28
gem5 executing on barolo, pid 3381534
command line: build/GCN3_X86/gem5.opt --debug-flags=HSAPacketProcessor,HSADriver,GPUDriver configs/example/apu_se_mod.py -n2 --num-gpus=1 --benchmark-root=/u/b/w/bwyogatama/Research/Scheduling/gem5_clean/gem5/HSA -c vector_copy2.out --options=/u/b/w/bwyogatama/Research/Scheduling/gem5_clean/gem5/HSA/vector_copy.brig

Num SQC =  1 Num scalar caches =  1 Num CU =  4
Num GPUs =  1
TCC_bits = 0
Num Dirs = 1
<orphan System>.ruby.cp_cntrl0
<orphan System>.ruby.tcp_cntrl0
<orphan System>.ruby.tcp_cntrl1
<orphan System>.ruby.tcp_cntrl2
<orphan System>.ruby.tcp_cntrl3
<orphan System>.ruby.sqc_cntrl0
<orphan System>.ruby.scalar_cntrl0
<orphan System>.ruby.tcc_cntrl0
<orphan System>.dma_cntrl0
<orphan System>.dma_cntrl1
Global frequency set at 1000000000000 ticks per second
warn: DRAM device capacity (8192 Mbytes) does not match the address range assigned (512 Mbytes)
      0: system.cpu2.gpu_cmd_proc.hsapp: HSAPacketProcessor:
      0: system.cpu0.workload.drivers: Constructing KFD: device
Forcing maxCoalescedReqs to 32 (TLB assoc.) 
Forcing maxCoalescedReqs to 32 (TLB assoc.) 
Forcing maxCoalescedReqs to 32 (TLB assoc.) 
Forcing maxCoalescedReqs to 32 (TLB assoc.) 
Forcing maxCoalescedReqs to 32 (TLB assoc.) 
Forcing maxCoalescedReqs to 32 (TLB assoc.) 
Forcing maxCoalescedReqs to 32 (TLB assoc.) 
Forcing maxCoalescedReqs to 32 (TLB assoc.) 
0: system.remote_gdb: listening for remote gdb on port 7000
0: system.remote_gdb: listening for remote gdb on port 7001
info: Entering event queue @ 0.  Starting simulation...
warn: Replacement policy updates recently became the responsibility of SLICC state machines. Make sure to setMRU() near callbacks in .sm files!
warn: x86 cpuid family 0x0000: unimplemented function 7
warn: ignoring syscall access(...)
warn: ignoring syscall access(...)
warn: ignoring syscall mprotect(...)
warn: ignoring syscall access(...)
warn: ignoring syscall mprotect(...)
warn: ignoring syscall access(...)
warn: ignoring syscall mprotect(...)
warn: ignoring syscall access(...)
warn: ignoring syscall mprotect(...)
warn: ignoring syscall mprotect(...)
warn: ignoring syscall mprotect(...)
warn: ignoring syscall mprotect(...)
warn: ignoring syscall mprotect(...)
warn: ignoring syscall mprotect(...)
warn: ignoring syscall access(...)
warn: ignoring syscall mprotect(...)
warn: ignoring syscall access(...)
warn: ignoring syscall mprotect(...)
warn: ignoring syscall access(...)
warn: ignoring syscall mprotect(...)
warn: ignoring syscall mprotect(...)
warn: ignoring syscall access(...)
warn: ignoring syscall mprotect(...)
warn: ignoring syscall access(...)
warn: ignoring syscall mprotect(...)
warn: ignoring syscall access(...)
warn: ignoring syscall mprotect(...)
warn: ignoring syscall access(...)
warn: ignoring syscall mprotect(...)
warn: ignoring syscall access(...)
warn: ignoring syscall mprotect(...)
warn: ignoring syscall mprotect(...)
warn: ignoring syscall mprotect(...)
warn: ignoring syscall mprotect(...)
warn: ignoring syscall mprotect(...)
warn: ignoring syscall mprotect(...)
warn: ignoring syscall mprotect(...)
warn: ignoring syscall mprotect(...)
warn: ignoring syscall mprotect(...)
warn: ignoring syscall mprotect(...)
warn: ignoring syscall mprotect(...)
warn: ignoring syscall mprotect(...)
warn: ignoring syscall mprotect(...)
warn: ignoring syscall mprotect(...)
warn: ignoring syscall mprotect(...)
warn: ignoring syscall mprotect(...)
warn: ignoring syscall mprotect(...)
warn: ignoring syscall mprotect(...)
warn: ignoring syscall mprotect(...)
warn: ignoring syscall set_robust_list(...)
warn: ignoring syscall rt_sigaction(...)
      (further warnings will be suppressed)
warn: ignoring syscall rt_sigprocmask(...)
      (further warnings will be suppressed)
warn: ignoring syscall mprotect(...)
warn: ignoring syscall mprotect(...)
17190628000: system.cpu0.workload.drivers: Opened kfd
warn: ignoring syscall access(...)
17408752500: system.cpu0.workload.drivers: ioctl: AMDKFD_IOC_GET_PROCESS_APERTURES_NEW
ioc_args->num_of_nodes: 1
warn: fcntl: unsupported command 6
warn: fcntl: unsupported command 6
17428710500: system.cpu0.workload.drivers: ioctl: AMDKFD_IOC_GET_VERSION
Failed to get Processor Vendor. Setting to GenuineIntel
warn: ignoring syscall sched_getaffinity(...)
warn: ignoring syscall sched_setaffinity(...)
warn: x86 cpuid family 0x0000: unimplemented function 4 returning 0x0, 0x0, 0x0, 0x0.
warn: ignoring syscall sched_setaffinity(...)
warn: x86 cpuid family 0x0000: unimplemented function 4 returning 0x0, 0x0, 0x0, 0x0.
warn: ignoring syscall sched_setaffinity(...)
warn: ignoring syscall access(...)
17590800500: system.cpu0.workload.drivers: ioctl: AMDKFD_IOC_GET_CLOCK_COUNTERS
17595212000: system.cpu0.workload.drivers: ioctl: AMDKFD_IOC_GET_CLOCK_COUNTERS
warn: ignoring syscall mprotect(...)
warn: ignoring syscall mprotect(...)
warn: ignoring syscall mprotect(...)
warn: ignoring syscall mprotect(...)
warn: unimplemented ioctl: AMDKFD_IOC_ALLOC_MEMORY_OF_SCRATCH
warn: mmap: writing to shared mmap region is currently unsupported. The write succeeds on the target, but it will not be propagated to the host or shared mappings
warn: mmap: writing to shared mmap region is currently unsupported. The write succeeds on the target, but it will not be propagated to the host or shared mappings
warn: ignoring syscall mprotect(...)
warn: ignoring syscall mprotect(...)
warn: ignoring syscall mprotect(...)
34456690500: system.cpu0.workload.drivers: ioctl: AMDKFD_IOC_CREATE_QUEUE
GPU ID: 2765
args->doorbell_offset1: 0xc2b3400000000
args->doorbell_offset2: 0xc2b3400000000000
34456690500: system.cpu2.gpu_cmd_proc.hsapp: setDeviceQueueDesc:base = 0x7ffef42e6000, qID = 0, ze = 524288
34456690500: global: Trying to map new queue, @ mapQIfSlotAvlbl
34456690500: global: Trying to find empty HW queue, @ findEmptyHWQ
34456690500: global: Mapped HSA queue 0 to hw queue 0: @ addQCntxt
34456690500: system.cpu2.gpu_cmd_proc.hsapp: getCommandsFromHost: read-pointer offset[0x0], write-pointer offset[0x0] doorbell(0)[0x0] 
34456690500: global: registerNewQueue: offset = 0, qID = 0, is_regd = true, AL size 1
34456690500: system.cpu0.workload.drivers: Creating queue 1
warn: mmap: writing to shared mmap region is currently unsupported. The write succeeds on the target, but it will not be propagated to the host or shared mappings
34461864000: system.cpu0.workload.drivers: amdkfd doorbell mmap (start: 0, length: 0x1000,offset: 0x0)
mem_state->getMmapEnd() = 140732992331776
start = 140732992327680
vm_pgoff: 0xc2b3400000000
offset: 0x0
GPU ID: 0xacd
34461864000: system.cpu0.workload.drivers: amdkfd doorbell mapped to 7ffef4041000p
34491875500: system.cpu0.workload.drivers: ioctl: AMDKFD_IOC_CREATE_EVENT
34491875500: system.cpu0.workload.drivers: amdkfd create events(event_id: 0x0, offset: 0x8000000000000000)
warn: mmap: writing to shared mmap region is currently unsupported. The write succeeds on the target, but it will not be propagated to the host or shared mappings
34492267000: system.cpu0.workload.drivers: amdkfd mmap for events(start: 0, length: 0x9000,offset: 0x8000000000000000,  )
eventPage = (nil)
should_mmap = 1
mem_state->getMmapEnd() = 140732992327680
start = 140732992290816
eventPage = 0x7ffef4038000
34521338500: system.cpu0.workload.drivers: ioctl: AMDKFD_IOC_CREATE_EVENT
34521338500: system.cpu0.workload.drivers: amdkfd create events(event_id: 0x1, offset: 0x8000000000000000)
warn: ignoring syscall mprotect(...)
warn: ClockedObject: Already in the requested power state, request ignored
warn: ignoring syscall set_robust_list(...)
warn: ignoring syscall mprotect(...)
34591947000: system.cpu0.workload.drivers: ioctl: AMDKFD_IOC_CREATE_EVENT
34591947000: system.cpu0.workload.drivers: amdkfd create events(event_id: 0x2, offset: 0x8000000000000000)
warn: ignoring syscall mprotect(...)
warn: ignoring syscall mprotect(...)
warn: ignoring syscall mprotect(...)
warn: ignoring syscall mprotect(...)
34809158500: system.cpu0.workload.drivers: ioctl: AMDKFD_IOC_WAIT_EVENTS
34809158500: system.cpu0.workload.drivers: amdkfd wait for events(wait on all: 0, timeout : 4294967294, num_events: 2)
34809158500: system.cpu0.workload.drivers: tc->cpuId() = 1
34809158500: system.cpu0.workload.drivers: tc->threadId() = 0
34809158500: system.cpu0.workload.drivers: 	amdkfd creating event list for thread  1
34809158500: system.cpu0.workload.drivers: 	amdkfd wait for event 0
34809158500: system.cpu0.workload.drivers: ETable[0].setEvent = 0
34809158500: system.cpu0.workload.drivers: 	amdkfd wait for event 1
34809158500: system.cpu0.workload.drivers: ETable[1].setEvent = 0
34809158500: system.cpu0.workload.drivers: CPU 1 is put to sleep
warn: mmap: writing to shared mmap region is currently unsupported. The write succeeds on the target, but it will not be propagated to the host or shared mappings
warn: mmap: writing to shared mmap region is currently unsupported. The write succeeds on the target, but it will not be propagated to the host or shared mappings
warn: ignoring syscall mprotect(...)
warn: ignoring syscall mprotect(...)
warn: ignoring syscall mprotect(...)
41443092000: system.cpu0.workload.drivers: ioctl: AMDKFD_IOC_CREATE_QUEUE
GPU ID: 2765
args->doorbell_offset1: 0xc2b3400000000
args->doorbell_offset2: 0xc2b3400000000000
41443092000: system.cpu2.gpu_cmd_proc.hsapp: setDeviceQueueDesc:base = 0x7ffeeb755000, qID = 1, ze = 524288
41443092000: global: Trying to map new queue, @ mapQIfSlotAvlbl
41443092000: global: Trying to find empty HW queue, @ findEmptyHWQ
41443092000: global: Mapped HSA queue 1 to hw queue 1: @ addQCntxt
41443092000: system.cpu2.gpu_cmd_proc.hsapp: getCommandsFromHost: read-pointer offset[0x0], write-pointer offset[0x0] doorbell(0)[0x4] 
41443092000: global: registerNewQueue: offset = 0x4, qID = 1, is_regd = true, AL size 2
41443092000: system.cpu0.workload.drivers: Creating queue 2
41497844000: system.cpu0.workload.drivers: ioctl: AMDKFD_IOC_SET_EVENTS
41497844000: system.cpu0.workload.drivers: amdkfd set event 1
41497844000: system.cpu0.workload.drivers: Signal event: Waking up CPU 1
warn: ignoring syscall mprotect(...)
41514088000: system.cpu0.workload.drivers: ioctl: AMDKFD_IOC_CREATE_EVENT
41514088000: system.cpu0.workload.drivers: amdkfd create events(event_id: 0x3, offset: 0x8000000000000000)
warn: ignoring syscall mprotect(...)
warn: ignoring syscall mprotect(...)
warn: ignoring syscall mprotect(...)
41601593000: system.cpu0.workload.drivers: ioctl: AMDKFD_IOC_CREATE_EVENT
41601593000: system.cpu0.workload.drivers: amdkfd create events(event_id: 0x4, offset: 0x8000000000000000)
warn: ignoring syscall mprotect(...)
warn: ignoring syscall mprotect(...)
warn: ignoring syscall mprotect(...)
41714008000: system.cpu0.workload.drivers: ioctl: AMDKFD_IOC_WAIT_EVENTS
41714008000: system.cpu0.workload.drivers: amdkfd wait for events(wait on all: 0, timeout : 4294967294, num_events: 2)
41714008000: system.cpu0.workload.drivers: tc->cpuId() = 1
41714008000: system.cpu0.workload.drivers: tc->threadId() = 0
41714008000: system.cpu0.workload.drivers: 	amdkfd wait for event 0
41714008000: system.cpu0.workload.drivers: ETable[0].setEvent = 0
41714008000: system.cpu0.workload.drivers: 	amdkfd wait for event 1
41714008000: system.cpu0.workload.drivers: ETable[1].setEvent = 1
41714555500: system.cpu0.workload.drivers: ioctl: AMDKFD_IOC_WAIT_EVENTS
41714555500: system.cpu0.workload.drivers: amdkfd wait for events(wait on all: 0, timeout : 4294967294, num_events: 2)
41714555500: system.cpu0.workload.drivers: tc->cpuId() = 1
41714555500: system.cpu0.workload.drivers: tc->threadId() = 0
41714555500: system.cpu0.workload.drivers: 	amdkfd wait for event 0
41714555500: system.cpu0.workload.drivers: ETable[0].setEvent = 0
41714555500: system.cpu0.workload.drivers: 	amdkfd wait for event 1
41714555500: system.cpu0.workload.drivers: ETable[1].setEvent = 0
41714555500: system.cpu0.workload.drivers: CPU 1 is put to sleep
45848141000: system.cpu0.workload.drivers: ioctl: AMDKFD_IOC_CREATE_EVENT
45848141000: system.cpu0.workload.drivers: amdkfd create events(event_id: 0x5, offset: 0x8000000000000000)
45851969000: system.cpu0.workload.drivers: ioctl: AMDKFD_IOC_CREATE_EVENT
45851969000: system.cpu0.workload.drivers: amdkfd create events(event_id: 0x6, offset: 0x8000000000000000)
45864635500: system.cpu0.workload.drivers: ioctl: AMDKFD_IOC_CREATE_EVENT
45864635500: system.cpu0.workload.drivers: amdkfd create events(event_id: 0x7, offset: 0x8000000000000000)
45868850500: system.cpu0.workload.drivers: ioctl: AMDKFD_IOC_CREATE_EVENT
45868850500: system.cpu0.workload.drivers: amdkfd create events(event_id: 0x8, offset: 0x8000000000000000)
45883791500: system.cpu0.workload.drivers: ioctl: AMDKFD_IOC_CREATE_EVENT
45883791500: system.cpu0.workload.drivers: amdkfd create events(event_id: 0x9, offset: 0x8000000000000000)
45887855000: system.cpu0.workload.drivers: ioctl: AMDKFD_IOC_CREATE_EVENT
45887855000: system.cpu0.workload.drivers: amdkfd create events(event_id: 0xa, offset: 0x8000000000000000)
45899522000: system.cpu0.workload.drivers: ioctl: AMDKFD_IOC_CREATE_EVENT
45899522000: system.cpu0.workload.drivers: amdkfd create events(event_id: 0xb, offset: 0x8000000000000000)
45903760000: system.cpu0.workload.drivers: ioctl: AMDKFD_IOC_CREATE_EVENT
45903760000: system.cpu0.workload.drivers: amdkfd create events(event_id: 0xc, offset: 0x8000000000000000)
45922095500: system.cpu0.workload.drivers: ioctl: AMDKFD_IOC_CREATE_EVENT
45922095500: system.cpu0.workload.drivers: amdkfd create events(event_id: 0xd, offset: 0x8000000000000000)
45927438500: system.cpu0.workload.drivers: ioctl: AMDKFD_IOC_CREATE_EVENT
45927438500: system.cpu0.workload.drivers: amdkfd create events(event_id: 0xe, offset: 0x8000000000000000)
45932011000: system.cpu0.workload.drivers: ioctl: AMDKFD_IOC_CREATE_EVENT
45932011000: system.cpu0.workload.drivers: amdkfd create events(event_id: 0xf, offset: 0x8000000000000000)
45936962500: system.cpu0.workload.drivers: ioctl: AMDKFD_IOC_CREATE_EVENT
45936962500: system.cpu0.workload.drivers: amdkfd create events(event_id: 0x10, offset: 0x8000000000000000)
45940983000: system.cpu0.workload.drivers: ioctl: AMDKFD_IOC_CREATE_EVENT
45940983000: system.cpu0.workload.drivers: amdkfd create events(event_id: 0x11, offset: 0x8000000000000000)
45946849500: system.cpu0.workload.drivers: ioctl: AMDKFD_IOC_CREATE_EVENT
45946849500: system.cpu0.workload.drivers: amdkfd create events(event_id: 0x12, offset: 0x8000000000000000)
45950923000: system.cpu0.workload.drivers: ioctl: AMDKFD_IOC_CREATE_EVENT
45950923000: system.cpu0.workload.drivers: amdkfd create events(event_id: 0x13, offset: 0x8000000000000000)
45955114500: system.cpu0.workload.drivers: ioctl: AMDKFD_IOC_CREATE_EVENT
45955114500: system.cpu0.workload.drivers: amdkfd create events(event_id: 0x14, offset: 0x8000000000000000)
45959481500: system.cpu0.workload.drivers: ioctl: AMDKFD_IOC_CREATE_EVENT
45959481500: system.cpu0.workload.drivers: amdkfd create events(event_id: 0x15, offset: 0x8000000000000000)
45964623000: system.cpu0.workload.drivers: ioctl: AMDKFD_IOC_CREATE_EVENT
45964623000: system.cpu0.workload.drivers: amdkfd create events(event_id: 0x16, offset: 0x8000000000000000)
45968917000: system.cpu0.workload.drivers: ioctl: AMDKFD_IOC_CREATE_EVENT
45968917000: system.cpu0.workload.drivers: amdkfd create events(event_id: 0x17, offset: 0x8000000000000000)
45973134500: system.cpu0.workload.drivers: ioctl: AMDKFD_IOC_CREATE_EVENT
45973134500: system.cpu0.workload.drivers: amdkfd create events(event_id: 0x18, offset: 0x8000000000000000)
45977389500: system.cpu0.workload.drivers: ioctl: AMDKFD_IOC_CREATE_EVENT
45977389500: system.cpu0.workload.drivers: amdkfd create events(event_id: 0x19, offset: 0x8000000000000000)
45981665000: system.cpu0.workload.drivers: ioctl: AMDKFD_IOC_CREATE_EVENT
45981665000: system.cpu0.workload.drivers: amdkfd create events(event_id: 0x1a, offset: 0x8000000000000000)
45985931000: system.cpu0.workload.drivers: ioctl: AMDKFD_IOC_CREATE_EVENT
45985931000: system.cpu0.workload.drivers: amdkfd create events(event_id: 0x1b, offset: 0x8000000000000000)
45990094500: system.cpu0.workload.drivers: ioctl: AMDKFD_IOC_CREATE_EVENT
45990094500: system.cpu0.workload.drivers: amdkfd create events(event_id: 0x1c, offset: 0x8000000000000000)
45994227000: system.cpu0.workload.drivers: ioctl: AMDKFD_IOC_CREATE_EVENT
45994227000: system.cpu0.workload.drivers: amdkfd create events(event_id: 0x1d, offset: 0x8000000000000000)
45999740000: system.cpu0.workload.drivers: ioctl: AMDKFD_IOC_CREATE_EVENT
45999740000: system.cpu0.workload.drivers: amdkfd create events(event_id: 0x1e, offset: 0x8000000000000000)
46004547500: system.cpu0.workload.drivers: ioctl: AMDKFD_IOC_CREATE_EVENT
46004547500: system.cpu0.workload.drivers: amdkfd create events(event_id: 0x1f, offset: 0x8000000000000000)
46009405000: system.cpu0.workload.drivers: ioctl: AMDKFD_IOC_CREATE_EVENT
46009405000: system.cpu0.workload.drivers: amdkfd create events(event_id: 0x20, offset: 0x8000000000000000)
46013985000: system.cpu0.workload.drivers: ioctl: AMDKFD_IOC_CREATE_EVENT
46013985000: system.cpu0.workload.drivers: amdkfd create events(event_id: 0x21, offset: 0x8000000000000000)
46019164000: system.cpu0.workload.drivers: ioctl: AMDKFD_IOC_CREATE_EVENT
46019164000: system.cpu0.workload.drivers: amdkfd create events(event_id: 0x22, offset: 0x8000000000000000)
46023582500: system.cpu0.workload.drivers: ioctl: AMDKFD_IOC_CREATE_EVENT
46023582500: system.cpu0.workload.drivers: amdkfd create events(event_id: 0x23, offset: 0x8000000000000000)
46028256500: system.cpu0.workload.drivers: ioctl: AMDKFD_IOC_CREATE_EVENT
46028256500: system.cpu0.workload.drivers: amdkfd create events(event_id: 0x24, offset: 0x8000000000000000)
46032768000: system.cpu0.workload.drivers: ioctl: AMDKFD_IOC_CREATE_EVENT
46032768000: system.cpu0.workload.drivers: amdkfd create events(event_id: 0x25, offset: 0x8000000000000000)
46037624000: system.cpu0.workload.drivers: ioctl: AMDKFD_IOC_CREATE_EVENT
46037624000: system.cpu0.workload.drivers: amdkfd create events(event_id: 0x26, offset: 0x8000000000000000)
46042080500: system.cpu0.workload.drivers: ioctl: AMDKFD_IOC_CREATE_EVENT
46042080500: system.cpu0.workload.drivers: amdkfd create events(event_id: 0x27, offset: 0x8000000000000000)
46046828500: system.cpu0.workload.drivers: ioctl: AMDKFD_IOC_CREATE_EVENT
46046828500: system.cpu0.workload.drivers: amdkfd create events(event_id: 0x28, offset: 0x8000000000000000)
46051059000: system.cpu0.workload.drivers: ioctl: AMDKFD_IOC_CREATE_EVENT
46051059000: system.cpu0.workload.drivers: amdkfd create events(event_id: 0x29, offset: 0x8000000000000000)
46055942500: system.cpu0.workload.drivers: ioctl: AMDKFD_IOC_CREATE_EVENT
46055942500: system.cpu0.workload.drivers: amdkfd create events(event_id: 0x2a, offset: 0x8000000000000000)
46060221500: system.cpu0.workload.drivers: ioctl: AMDKFD_IOC_CREATE_EVENT
46060221500: system.cpu0.workload.drivers: amdkfd create events(event_id: 0x2b, offset: 0x8000000000000000)
46064872000: system.cpu0.workload.drivers: ioctl: AMDKFD_IOC_CREATE_EVENT
46064872000: system.cpu0.workload.drivers: amdkfd create events(event_id: 0x2c, offset: 0x8000000000000000)
46069614500: system.cpu0.workload.drivers: ioctl: AMDKFD_IOC_CREATE_EVENT
46069614500: system.cpu0.workload.drivers: amdkfd create events(event_id: 0x2d, offset: 0x8000000000000000)
46074743000: system.cpu0.workload.drivers: ioctl: AMDKFD_IOC_CREATE_EVENT
46074743000: system.cpu0.workload.drivers: amdkfd create events(event_id: 0x2e, offset: 0x8000000000000000)
46079185500: system.cpu0.workload.drivers: ioctl: AMDKFD_IOC_CREATE_EVENT
46079185500: system.cpu0.workload.drivers: amdkfd create events(event_id: 0x2f, offset: 0x8000000000000000)
46084061500: system.cpu0.workload.drivers: ioctl: AMDKFD_IOC_CREATE_EVENT
46084061500: system.cpu0.workload.drivers: amdkfd create events(event_id: 0x30, offset: 0x8000000000000000)
46088442500: system.cpu0.workload.drivers: ioctl: AMDKFD_IOC_CREATE_EVENT
46088442500: system.cpu0.workload.drivers: amdkfd create events(event_id: 0x31, offset: 0x8000000000000000)
46093705000: system.cpu0.workload.drivers: ioctl: AMDKFD_IOC_CREATE_EVENT
46093705000: system.cpu0.workload.drivers: amdkfd create events(event_id: 0x32, offset: 0x8000000000000000)
46097956500: system.cpu0.workload.drivers: ioctl: AMDKFD_IOC_CREATE_EVENT
46097956500: system.cpu0.workload.drivers: amdkfd create events(event_id: 0x33, offset: 0x8000000000000000)
46102283000: system.cpu0.workload.drivers: ioctl: AMDKFD_IOC_CREATE_EVENT
46102283000: system.cpu0.workload.drivers: amdkfd create events(event_id: 0x34, offset: 0x8000000000000000)
46106912500: system.cpu0.workload.drivers: ioctl: AMDKFD_IOC_CREATE_EVENT
46106912500: system.cpu0.workload.drivers: amdkfd create events(event_id: 0x35, offset: 0x8000000000000000)
46111433000: system.cpu0.workload.drivers: ioctl: AMDKFD_IOC_CREATE_EVENT
46111433000: system.cpu0.workload.drivers: amdkfd create events(event_id: 0x36, offset: 0x8000000000000000)
46115717500: system.cpu0.workload.drivers: ioctl: AMDKFD_IOC_CREATE_EVENT
46115717500: system.cpu0.workload.drivers: amdkfd create events(event_id: 0x37, offset: 0x8000000000000000)
46121071500: system.cpu0.workload.drivers: ioctl: AMDKFD_IOC_CREATE_EVENT
46121071500: system.cpu0.workload.drivers: amdkfd create events(event_id: 0x38, offset: 0x8000000000000000)
46125405500: system.cpu0.workload.drivers: ioctl: AMDKFD_IOC_CREATE_EVENT
46125405500: system.cpu0.workload.drivers: amdkfd create events(event_id: 0x39, offset: 0x8000000000000000)
46129891000: system.cpu0.workload.drivers: ioctl: AMDKFD_IOC_CREATE_EVENT
46129891000: system.cpu0.workload.drivers: amdkfd create events(event_id: 0x3a, offset: 0x8000000000000000)
46134197000: system.cpu0.workload.drivers: ioctl: AMDKFD_IOC_CREATE_EVENT
46134197000: system.cpu0.workload.drivers: amdkfd create events(event_id: 0x3b, offset: 0x8000000000000000)
46138964000: system.cpu0.workload.drivers: ioctl: AMDKFD_IOC_CREATE_EVENT
46138964000: system.cpu0.workload.drivers: amdkfd create events(event_id: 0x3c, offset: 0x8000000000000000)
46143355500: system.cpu0.workload.drivers: ioctl: AMDKFD_IOC_CREATE_EVENT
46143355500: system.cpu0.workload.drivers: amdkfd create events(event_id: 0x3d, offset: 0x8000000000000000)
46147850000: system.cpu0.workload.drivers: ioctl: AMDKFD_IOC_CREATE_EVENT
46147850000: system.cpu0.workload.drivers: amdkfd create events(event_id: 0x3e, offset: 0x8000000000000000)
46152090000: system.cpu0.workload.drivers: ioctl: AMDKFD_IOC_CREATE_EVENT
46152090000: system.cpu0.workload.drivers: amdkfd create events(event_id: 0x3f, offset: 0x8000000000000000)
46157053000: system.cpu0.workload.drivers: ioctl: AMDKFD_IOC_CREATE_EVENT
46157053000: system.cpu0.workload.drivers: amdkfd create events(event_id: 0x40, offset: 0x8000000000000000)
46161318000: system.cpu0.workload.drivers: ioctl: AMDKFD_IOC_CREATE_EVENT
46161318000: system.cpu0.workload.drivers: amdkfd create events(event_id: 0x41, offset: 0x8000000000000000)
46165746000: system.cpu0.workload.drivers: ioctl: AMDKFD_IOC_CREATE_EVENT
46165746000: system.cpu0.workload.drivers: amdkfd create events(event_id: 0x42, offset: 0x8000000000000000)
46170289000: system.cpu0.workload.drivers: ioctl: AMDKFD_IOC_CREATE_EVENT
46170289000: system.cpu0.workload.drivers: amdkfd create events(event_id: 0x43, offset: 0x8000000000000000)
46174880500: system.cpu0.workload.drivers: ioctl: AMDKFD_IOC_CREATE_EVENT
46174880500: system.cpu0.workload.drivers: amdkfd create events(event_id: 0x44, offset: 0x8000000000000000)
46179205500: system.cpu0.workload.drivers: ioctl: AMDKFD_IOC_CREATE_EVENT
46179205500: system.cpu0.workload.drivers: amdkfd create events(event_id: 0x45, offset: 0x8000000000000000)
46183966500: system.cpu0.workload.drivers: ioctl: AMDKFD_IOC_CREATE_EVENT
46183966500: system.cpu0.workload.drivers: amdkfd create events(event_id: 0x46, offset: 0x8000000000000000)
46188371500: system.cpu0.workload.drivers: ioctl: AMDKFD_IOC_CREATE_EVENT
46188371500: system.cpu0.workload.drivers: amdkfd create events(event_id: 0x47, offset: 0x8000000000000000)
46193121500: system.cpu0.workload.drivers: ioctl: AMDKFD_IOC_CREATE_EVENT
46193121500: system.cpu0.workload.drivers: amdkfd create events(event_id: 0x48, offset: 0x8000000000000000)
46197351000: system.cpu0.workload.drivers: ioctl: AMDKFD_IOC_CREATE_EVENT
46197351000: system.cpu0.workload.drivers: amdkfd create events(event_id: 0x49, offset: 0x8000000000000000)
46202331000: system.cpu0.workload.drivers: ioctl: AMDKFD_IOC_CREATE_EVENT
46202331000: system.cpu0.workload.drivers: amdkfd create events(event_id: 0x4a, offset: 0x8000000000000000)
46206982500: system.cpu0.workload.drivers: ioctl: AMDKFD_IOC_CREATE_EVENT
46206982500: system.cpu0.workload.drivers: amdkfd create events(event_id: 0x4b, offset: 0x8000000000000000)
46211499500: system.cpu0.workload.drivers: ioctl: AMDKFD_IOC_CREATE_EVENT
46211499500: system.cpu0.workload.drivers: amdkfd create events(event_id: 0x4c, offset: 0x8000000000000000)
46216001000: system.cpu0.workload.drivers: ioctl: AMDKFD_IOC_CREATE_EVENT
46216001000: system.cpu0.workload.drivers: amdkfd create events(event_id: 0x4d, offset: 0x8000000000000000)
46222865500: system.cpu0.workload.drivers: ioctl: AMDKFD_IOC_CREATE_EVENT
46222865500: system.cpu0.workload.drivers: amdkfd create events(event_id: 0x4e, offset: 0x8000000000000000)
46226928000: system.cpu0.workload.drivers: ioctl: AMDKFD_IOC_CREATE_EVENT
46226928000: system.cpu0.workload.drivers: amdkfd create events(event_id: 0x4f, offset: 0x8000000000000000)
46231813500: system.cpu0.workload.drivers: ioctl: AMDKFD_IOC_CREATE_EVENT
46231813500: system.cpu0.workload.drivers: amdkfd create events(event_id: 0x50, offset: 0x8000000000000000)
46236060500: system.cpu0.workload.drivers: ioctl: AMDKFD_IOC_CREATE_EVENT
46236060500: system.cpu0.workload.drivers: amdkfd create events(event_id: 0x51, offset: 0x8000000000000000)
46240667500: system.cpu0.workload.drivers: ioctl: AMDKFD_IOC_CREATE_EVENT
46240667500: system.cpu0.workload.drivers: amdkfd create events(event_id: 0x52, offset: 0x8000000000000000)
46244879500: system.cpu0.workload.drivers: ioctl: AMDKFD_IOC_CREATE_EVENT
46244879500: system.cpu0.workload.drivers: amdkfd create events(event_id: 0x53, offset: 0x8000000000000000)
46249001500: system.cpu0.workload.drivers: ioctl: AMDKFD_IOC_CREATE_EVENT
46249001500: system.cpu0.workload.drivers: amdkfd create events(event_id: 0x54, offset: 0x8000000000000000)
46253575000: system.cpu0.workload.drivers: ioctl: AMDKFD_IOC_CREATE_EVENT
46253575000: system.cpu0.workload.drivers: amdkfd create events(event_id: 0x55, offset: 0x8000000000000000)
46258227000: system.cpu0.workload.drivers: ioctl: AMDKFD_IOC_CREATE_EVENT
46258227000: system.cpu0.workload.drivers: amdkfd create events(event_id: 0x56, offset: 0x8000000000000000)
46262520500: system.cpu0.workload.drivers: ioctl: AMDKFD_IOC_CREATE_EVENT
46262520500: system.cpu0.workload.drivers: amdkfd create events(event_id: 0x57, offset: 0x8000000000000000)
46267256000: system.cpu0.workload.drivers: ioctl: AMDKFD_IOC_CREATE_EVENT
46267256000: system.cpu0.workload.drivers: amdkfd create events(event_id: 0x58, offset: 0x8000000000000000)
46271616000: system.cpu0.workload.drivers: ioctl: AMDKFD_IOC_CREATE_EVENT
46271616000: system.cpu0.workload.drivers: amdkfd create events(event_id: 0x59, offset: 0x8000000000000000)
46276261500: system.cpu0.workload.drivers: ioctl: AMDKFD_IOC_CREATE_EVENT
46276261500: system.cpu0.workload.drivers: amdkfd create events(event_id: 0x5a, offset: 0x8000000000000000)
46280570500: system.cpu0.workload.drivers: ioctl: AMDKFD_IOC_CREATE_EVENT
46280570500: system.cpu0.workload.drivers: amdkfd create events(event_id: 0x5b, offset: 0x8000000000000000)
46285224000: system.cpu0.workload.drivers: ioctl: AMDKFD_IOC_CREATE_EVENT
46285224000: system.cpu0.workload.drivers: amdkfd create events(event_id: 0x5c, offset: 0x8000000000000000)
46289468000: system.cpu0.workload.drivers: ioctl: AMDKFD_IOC_CREATE_EVENT
46289468000: system.cpu0.workload.drivers: amdkfd create events(event_id: 0x5d, offset: 0x8000000000000000)
46294006000: system.cpu0.workload.drivers: ioctl: AMDKFD_IOC_CREATE_EVENT
46294006000: system.cpu0.workload.drivers: amdkfd create events(event_id: 0x5e, offset: 0x8000000000000000)
46298413000: system.cpu0.workload.drivers: ioctl: AMDKFD_IOC_CREATE_EVENT
46298413000: system.cpu0.workload.drivers: amdkfd create events(event_id: 0x5f, offset: 0x8000000000000000)
46303188000: system.cpu0.workload.drivers: ioctl: AMDKFD_IOC_CREATE_EVENT
46303188000: system.cpu0.workload.drivers: amdkfd create events(event_id: 0x60, offset: 0x8000000000000000)
46307453000: system.cpu0.workload.drivers: ioctl: AMDKFD_IOC_CREATE_EVENT
46307453000: system.cpu0.workload.drivers: amdkfd create events(event_id: 0x61, offset: 0x8000000000000000)
46312312000: system.cpu0.workload.drivers: ioctl: AMDKFD_IOC_CREATE_EVENT
46312312000: system.cpu0.workload.drivers: amdkfd create events(event_id: 0x62, offset: 0x8000000000000000)
46316802500: system.cpu0.workload.drivers: ioctl: AMDKFD_IOC_CREATE_EVENT
46316802500: system.cpu0.workload.drivers: amdkfd create events(event_id: 0x63, offset: 0x8000000000000000)
46321342000: system.cpu0.workload.drivers: ioctl: AMDKFD_IOC_CREATE_EVENT
46321342000: system.cpu0.workload.drivers: amdkfd create events(event_id: 0x64, offset: 0x8000000000000000)
46325934000: system.cpu0.workload.drivers: ioctl: AMDKFD_IOC_CREATE_EVENT
46325934000: system.cpu0.workload.drivers: amdkfd create events(event_id: 0x65, offset: 0x8000000000000000)
46331045500: system.cpu0.workload.drivers: ioctl: AMDKFD_IOC_CREATE_EVENT
46331045500: system.cpu0.workload.drivers: amdkfd create events(event_id: 0x66, offset: 0x8000000000000000)
46335656000: system.cpu0.workload.drivers: ioctl: AMDKFD_IOC_CREATE_EVENT
46335656000: system.cpu0.workload.drivers: amdkfd create events(event_id: 0x67, offset: 0x8000000000000000)
46340144500: system.cpu0.workload.drivers: ioctl: AMDKFD_IOC_CREATE_EVENT
46340144500: system.cpu0.workload.drivers: amdkfd create events(event_id: 0x68, offset: 0x8000000000000000)
46344386000: system.cpu0.workload.drivers: ioctl: AMDKFD_IOC_CREATE_EVENT
46344386000: system.cpu0.workload.drivers: amdkfd create events(event_id: 0x69, offset: 0x8000000000000000)
46349476000: system.cpu0.workload.drivers: ioctl: AMDKFD_IOC_CREATE_EVENT
46349476000: system.cpu0.workload.drivers: amdkfd create events(event_id: 0x6a, offset: 0x8000000000000000)
46354014500: system.cpu0.workload.drivers: ioctl: AMDKFD_IOC_CREATE_EVENT
46354014500: system.cpu0.workload.drivers: amdkfd create events(event_id: 0x6b, offset: 0x8000000000000000)
46358531500: system.cpu0.workload.drivers: ioctl: AMDKFD_IOC_CREATE_EVENT
46358531500: system.cpu0.workload.drivers: amdkfd create events(event_id: 0x6c, offset: 0x8000000000000000)
46363059500: system.cpu0.workload.drivers: ioctl: AMDKFD_IOC_CREATE_EVENT
46363059500: system.cpu0.workload.drivers: amdkfd create events(event_id: 0x6d, offset: 0x8000000000000000)
46367756000: system.cpu0.workload.drivers: ioctl: AMDKFD_IOC_CREATE_EVENT
46367756000: system.cpu0.workload.drivers: amdkfd create events(event_id: 0x6e, offset: 0x8000000000000000)
46372502000: system.cpu0.workload.drivers: ioctl: AMDKFD_IOC_CREATE_EVENT
46372502000: system.cpu0.workload.drivers: amdkfd create events(event_id: 0x6f, offset: 0x8000000000000000)
46377169500: system.cpu0.workload.drivers: ioctl: AMDKFD_IOC_CREATE_EVENT
46377169500: system.cpu0.workload.drivers: amdkfd create events(event_id: 0x70, offset: 0x8000000000000000)
46381479500: system.cpu0.workload.drivers: ioctl: AMDKFD_IOC_CREATE_EVENT
46381479500: system.cpu0.workload.drivers: amdkfd create events(event_id: 0x71, offset: 0x8000000000000000)
46386406000: system.cpu0.workload.drivers: ioctl: AMDKFD_IOC_CREATE_EVENT
46386406000: system.cpu0.workload.drivers: amdkfd create events(event_id: 0x72, offset: 0x8000000000000000)
46390661000: system.cpu0.workload.drivers: ioctl: AMDKFD_IOC_CREATE_EVENT
46390661000: system.cpu0.workload.drivers: amdkfd create events(event_id: 0x73, offset: 0x8000000000000000)
46395156000: system.cpu0.workload.drivers: ioctl: AMDKFD_IOC_CREATE_EVENT
46395156000: system.cpu0.workload.drivers: amdkfd create events(event_id: 0x74, offset: 0x8000000000000000)
46399373000: system.cpu0.workload.drivers: ioctl: AMDKFD_IOC_CREATE_EVENT
46399373000: system.cpu0.workload.drivers: amdkfd create events(event_id: 0x75, offset: 0x8000000000000000)
46404313500: system.cpu0.workload.drivers: ioctl: AMDKFD_IOC_CREATE_EVENT
46404313500: system.cpu0.workload.drivers: amdkfd create events(event_id: 0x76, offset: 0x8000000000000000)
46408597500: system.cpu0.workload.drivers: ioctl: AMDKFD_IOC_CREATE_EVENT
46408597500: system.cpu0.workload.drivers: amdkfd create events(event_id: 0x77, offset: 0x8000000000000000)
46413226000: system.cpu0.workload.drivers: ioctl: AMDKFD_IOC_CREATE_EVENT
46413226000: system.cpu0.workload.drivers: amdkfd create events(event_id: 0x78, offset: 0x8000000000000000)
46417962500: system.cpu0.workload.drivers: ioctl: AMDKFD_IOC_CREATE_EVENT
46417962500: system.cpu0.workload.drivers: amdkfd create events(event_id: 0x79, offset: 0x8000000000000000)
46423120000: system.cpu0.workload.drivers: ioctl: AMDKFD_IOC_CREATE_EVENT
46423120000: system.cpu0.workload.drivers: amdkfd create events(event_id: 0x7a, offset: 0x8000000000000000)
46427432000: system.cpu0.workload.drivers: ioctl: AMDKFD_IOC_CREATE_EVENT
46427432000: system.cpu0.workload.drivers: amdkfd create events(event_id: 0x7b, offset: 0x8000000000000000)
46431958000: system.cpu0.workload.drivers: ioctl: AMDKFD_IOC_CREATE_EVENT
46431958000: system.cpu0.workload.drivers: amdkfd create events(event_id: 0x7c, offset: 0x8000000000000000)
46436367000: system.cpu0.workload.drivers: ioctl: AMDKFD_IOC_CREATE_EVENT
46436367000: system.cpu0.workload.drivers: amdkfd create events(event_id: 0x7d, offset: 0x8000000000000000)
46440910000: system.cpu0.workload.drivers: ioctl: AMDKFD_IOC_CREATE_EVENT
46440910000: system.cpu0.workload.drivers: amdkfd create events(event_id: 0x7e, offset: 0x8000000000000000)
46445162500: system.cpu0.workload.drivers: ioctl: AMDKFD_IOC_CREATE_EVENT
46445162500: system.cpu0.workload.drivers: amdkfd create events(event_id: 0x7f, offset: 0x8000000000000000)
46449563000: system.cpu0.workload.drivers: ioctl: AMDKFD_IOC_CREATE_EVENT
46449563000: system.cpu0.workload.drivers: amdkfd create events(event_id: 0x80, offset: 0x8000000000000000)
46454288000: system.cpu0.workload.drivers: ioctl: AMDKFD_IOC_CREATE_EVENT
46454288000: system.cpu0.workload.drivers: amdkfd create events(event_id: 0x81, offset: 0x8000000000000000)
46459065500: system.cpu0.workload.drivers: ioctl: AMDKFD_IOC_CREATE_EVENT
46459065500: system.cpu0.workload.drivers: amdkfd create events(event_id: 0x82, offset: 0x8000000000000000)
46463431500: system.cpu0.workload.drivers: ioctl: AMDKFD_IOC_CREATE_EVENT
46463431500: system.cpu0.workload.drivers: amdkfd create events(event_id: 0x83, offset: 0x8000000000000000)
46468290500: system.cpu0.workload.drivers: ioctl: AMDKFD_IOC_CREATE_EVENT
46468290500: system.cpu0.workload.drivers: amdkfd create events(event_id: 0x84, offset: 0x8000000000000000)
46472636500: system.cpu0.workload.drivers: ioctl: AMDKFD_IOC_CREATE_EVENT
46472636500: system.cpu0.workload.drivers: amdkfd create events(event_id: 0x85, offset: 0x8000000000000000)
46477245000: system.cpu0.workload.drivers: ioctl: AMDKFD_IOC_CREATE_EVENT
46477245000: system.cpu0.workload.drivers: amdkfd create events(event_id: 0x86, offset: 0x8000000000000000)
46481558500: system.cpu0.workload.drivers: ioctl: AMDKFD_IOC_CREATE_EVENT
46481558500: system.cpu0.workload.drivers: amdkfd create events(event_id: 0x87, offset: 0x8000000000000000)
46486185000: system.cpu0.workload.drivers: ioctl: AMDKFD_IOC_CREATE_EVENT
46486185000: system.cpu0.workload.drivers: amdkfd create events(event_id: 0x88, offset: 0x8000000000000000)
46490635000: system.cpu0.workload.drivers: ioctl: AMDKFD_IOC_CREATE_EVENT
46490635000: system.cpu0.workload.drivers: amdkfd create events(event_id: 0x89, offset: 0x8000000000000000)
46495413500: system.cpu0.workload.drivers: ioctl: AMDKFD_IOC_CREATE_EVENT
46495413500: system.cpu0.workload.drivers: amdkfd create events(event_id: 0x8a, offset: 0x8000000000000000)
46499674500: system.cpu0.workload.drivers: ioctl: AMDKFD_IOC_CREATE_EVENT
46499674500: system.cpu0.workload.drivers: amdkfd create events(event_id: 0x8b, offset: 0x8000000000000000)
46504710500: system.cpu0.workload.drivers: ioctl: AMDKFD_IOC_CREATE_EVENT
46504710500: system.cpu0.workload.drivers: amdkfd create events(event_id: 0x8c, offset: 0x8000000000000000)
46508966000: system.cpu0.workload.drivers: ioctl: AMDKFD_IOC_CREATE_EVENT
46508966000: system.cpu0.workload.drivers: amdkfd create events(event_id: 0x8d, offset: 0x8000000000000000)
46516929000: system.cpu0.workload.drivers: ioctl: AMDKFD_IOC_CREATE_EVENT
46516929000: system.cpu0.workload.drivers: amdkfd create events(event_id: 0x8e, offset: 0x8000000000000000)
46520530000: system.cpu0.workload.drivers: ioctl: AMDKFD_IOC_CREATE_EVENT
46520530000: system.cpu0.workload.drivers: amdkfd create events(event_id: 0x8f, offset: 0x8000000000000000)
46524734000: system.cpu0.workload.drivers: ioctl: AMDKFD_IOC_CREATE_EVENT
46524734000: system.cpu0.workload.drivers: amdkfd create events(event_id: 0x90, offset: 0x8000000000000000)
46529146500: system.cpu0.workload.drivers: ioctl: AMDKFD_IOC_CREATE_EVENT
46529146500: system.cpu0.workload.drivers: amdkfd create events(event_id: 0x91, offset: 0x8000000000000000)
46534383000: system.cpu0.workload.drivers: ioctl: AMDKFD_IOC_CREATE_EVENT
46534383000: system.cpu0.workload.drivers: amdkfd create events(event_id: 0x92, offset: 0x8000000000000000)
46538638000: system.cpu0.workload.drivers: ioctl: AMDKFD_IOC_CREATE_EVENT
46538638000: system.cpu0.workload.drivers: amdkfd create events(event_id: 0x93, offset: 0x8000000000000000)
46543629000: system.cpu0.workload.drivers: ioctl: AMDKFD_IOC_CREATE_EVENT
46543629000: system.cpu0.workload.drivers: amdkfd create events(event_id: 0x94, offset: 0x8000000000000000)
46548044000: system.cpu0.workload.drivers: ioctl: AMDKFD_IOC_CREATE_EVENT
46548044000: system.cpu0.workload.drivers: amdkfd create events(event_id: 0x95, offset: 0x8000000000000000)
46552801000: system.cpu0.workload.drivers: ioctl: AMDKFD_IOC_CREATE_EVENT
46552801000: system.cpu0.workload.drivers: amdkfd create events(event_id: 0x96, offset: 0x8000000000000000)
46557458500: system.cpu0.workload.drivers: ioctl: AMDKFD_IOC_CREATE_EVENT
46557458500: system.cpu0.workload.drivers: amdkfd create events(event_id: 0x97, offset: 0x8000000000000000)
46562008500: system.cpu0.workload.drivers: ioctl: AMDKFD_IOC_CREATE_EVENT
46562008500: system.cpu0.workload.drivers: amdkfd create events(event_id: 0x98, offset: 0x8000000000000000)
46566601000: system.cpu0.workload.drivers: ioctl: AMDKFD_IOC_CREATE_EVENT
46566601000: system.cpu0.workload.drivers: amdkfd create events(event_id: 0x99, offset: 0x8000000000000000)
46571064000: system.cpu0.workload.drivers: ioctl: AMDKFD_IOC_CREATE_EVENT
46571064000: system.cpu0.workload.drivers: amdkfd create events(event_id: 0x9a, offset: 0x8000000000000000)
46575547000: system.cpu0.workload.drivers: ioctl: AMDKFD_IOC_CREATE_EVENT
46575547000: system.cpu0.workload.drivers: amdkfd create events(event_id: 0x9b, offset: 0x8000000000000000)
46580199500: system.cpu0.workload.drivers: ioctl: AMDKFD_IOC_CREATE_EVENT
46580199500: system.cpu0.workload.drivers: amdkfd create events(event_id: 0x9c, offset: 0x8000000000000000)
46584530000: system.cpu0.workload.drivers: ioctl: AMDKFD_IOC_CREATE_EVENT
46584530000: system.cpu0.workload.drivers: amdkfd create events(event_id: 0x9d, offset: 0x8000000000000000)
46588910500: system.cpu0.workload.drivers: ioctl: AMDKFD_IOC_CREATE_EVENT
46588910500: system.cpu0.workload.drivers: amdkfd create events(event_id: 0x9e, offset: 0x8000000000000000)
46593388500: system.cpu0.workload.drivers: ioctl: AMDKFD_IOC_CREATE_EVENT
46593388500: system.cpu0.workload.drivers: amdkfd create events(event_id: 0x9f, offset: 0x8000000000000000)
46598145500: system.cpu0.workload.drivers: ioctl: AMDKFD_IOC_CREATE_EVENT
46598145500: system.cpu0.workload.drivers: amdkfd create events(event_id: 0xa0, offset: 0x8000000000000000)
46602428500: system.cpu0.workload.drivers: ioctl: AMDKFD_IOC_CREATE_EVENT
46602428500: system.cpu0.workload.drivers: amdkfd create events(event_id: 0xa1, offset: 0x8000000000000000)
46607284000: system.cpu0.workload.drivers: ioctl: AMDKFD_IOC_CREATE_EVENT
46607284000: system.cpu0.workload.drivers: amdkfd create events(event_id: 0xa2, offset: 0x8000000000000000)
46611760000: system.cpu0.workload.drivers: ioctl: AMDKFD_IOC_CREATE_EVENT
46611760000: system.cpu0.workload.drivers: amdkfd create events(event_id: 0xa3, offset: 0x8000000000000000)
46616434000: system.cpu0.workload.drivers: ioctl: AMDKFD_IOC_CREATE_EVENT
46616434000: system.cpu0.workload.drivers: amdkfd create events(event_id: 0xa4, offset: 0x8000000000000000)
46620730500: system.cpu0.workload.drivers: ioctl: AMDKFD_IOC_CREATE_EVENT
46620730500: system.cpu0.workload.drivers: amdkfd create events(event_id: 0xa5, offset: 0x8000000000000000)
46625601000: system.cpu0.workload.drivers: ioctl: AMDKFD_IOC_CREATE_EVENT
46625601000: system.cpu0.workload.drivers: amdkfd create events(event_id: 0xa6, offset: 0x8000000000000000)
46629847000: system.cpu0.workload.drivers: ioctl: AMDKFD_IOC_CREATE_EVENT
46629847000: system.cpu0.workload.drivers: amdkfd create events(event_id: 0xa7, offset: 0x8000000000000000)
46634401000: system.cpu0.workload.drivers: ioctl: AMDKFD_IOC_CREATE_EVENT
46634401000: system.cpu0.workload.drivers: amdkfd create events(event_id: 0xa8, offset: 0x8000000000000000)
46638631500: system.cpu0.workload.drivers: ioctl: AMDKFD_IOC_CREATE_EVENT
46638631500: system.cpu0.workload.drivers: amdkfd create events(event_id: 0xa9, offset: 0x8000000000000000)
46643337500: system.cpu0.workload.drivers: ioctl: AMDKFD_IOC_CREATE_EVENT
46643337500: system.cpu0.workload.drivers: amdkfd create events(event_id: 0xaa, offset: 0x8000000000000000)
46647643500: system.cpu0.workload.drivers: ioctl: AMDKFD_IOC_CREATE_EVENT
46647643500: system.cpu0.workload.drivers: amdkfd create events(event_id: 0xab, offset: 0x8000000000000000)
46652287500: system.cpu0.workload.drivers: ioctl: AMDKFD_IOC_CREATE_EVENT
46652287500: system.cpu0.workload.drivers: amdkfd create events(event_id: 0xac, offset: 0x8000000000000000)
46656857500: system.cpu0.workload.drivers: ioctl: AMDKFD_IOC_CREATE_EVENT
46656857500: system.cpu0.workload.drivers: amdkfd create events(event_id: 0xad, offset: 0x8000000000000000)
46661498000: system.cpu0.workload.drivers: ioctl: AMDKFD_IOC_CREATE_EVENT
46661498000: system.cpu0.workload.drivers: amdkfd create events(event_id: 0xae, offset: 0x8000000000000000)
46665805500: system.cpu0.workload.drivers: ioctl: AMDKFD_IOC_CREATE_EVENT
46665805500: system.cpu0.workload.drivers: amdkfd create events(event_id: 0xaf, offset: 0x8000000000000000)
46670639000: system.cpu0.workload.drivers: ioctl: AMDKFD_IOC_CREATE_EVENT
46670639000: system.cpu0.workload.drivers: amdkfd create events(event_id: 0xb0, offset: 0x8000000000000000)
46675134500: system.cpu0.workload.drivers: ioctl: AMDKFD_IOC_CREATE_EVENT
46675134500: system.cpu0.workload.drivers: amdkfd create events(event_id: 0xb1, offset: 0x8000000000000000)
46679579500: system.cpu0.workload.drivers: ioctl: AMDKFD_IOC_CREATE_EVENT
46679579500: system.cpu0.workload.drivers: amdkfd create events(event_id: 0xb2, offset: 0x8000000000000000)
46683854500: system.cpu0.workload.drivers: ioctl: AMDKFD_IOC_CREATE_EVENT
46683854500: system.cpu0.workload.drivers: amdkfd create events(event_id: 0xb3, offset: 0x8000000000000000)
46688534500: system.cpu0.workload.drivers: ioctl: AMDKFD_IOC_CREATE_EVENT
46688534500: system.cpu0.workload.drivers: amdkfd create events(event_id: 0xb4, offset: 0x8000000000000000)
46693387500: system.cpu0.workload.drivers: ioctl: AMDKFD_IOC_CREATE_EVENT
46693387500: system.cpu0.workload.drivers: amdkfd create events(event_id: 0xb5, offset: 0x8000000000000000)
46698092500: system.cpu0.workload.drivers: ioctl: AMDKFD_IOC_CREATE_EVENT
46698092500: system.cpu0.workload.drivers: amdkfd create events(event_id: 0xb6, offset: 0x8000000000000000)
46702526500: system.cpu0.workload.drivers: ioctl: AMDKFD_IOC_CREATE_EVENT
46702526500: system.cpu0.workload.drivers: amdkfd create events(event_id: 0xb7, offset: 0x8000000000000000)
46707577000: system.cpu0.workload.drivers: ioctl: AMDKFD_IOC_CREATE_EVENT
46707577000: system.cpu0.workload.drivers: amdkfd create events(event_id: 0xb8, offset: 0x8000000000000000)
46711881000: system.cpu0.workload.drivers: ioctl: AMDKFD_IOC_CREATE_EVENT
46711881000: system.cpu0.workload.drivers: amdkfd create events(event_id: 0xb9, offset: 0x8000000000000000)
46716545500: system.cpu0.workload.drivers: ioctl: AMDKFD_IOC_CREATE_EVENT
46716545500: system.cpu0.workload.drivers: amdkfd create events(event_id: 0xba, offset: 0x8000000000000000)
46720841000: system.cpu0.workload.drivers: ioctl: AMDKFD_IOC_CREATE_EVENT
46720841000: system.cpu0.workload.drivers: amdkfd create events(event_id: 0xbb, offset: 0x8000000000000000)
46725512500: system.cpu0.workload.drivers: ioctl: AMDKFD_IOC_CREATE_EVENT
46725512500: system.cpu0.workload.drivers: amdkfd create events(event_id: 0xbc, offset: 0x8000000000000000)
46729799000: system.cpu0.workload.drivers: ioctl: AMDKFD_IOC_CREATE_EVENT
46729799000: system.cpu0.workload.drivers: amdkfd create events(event_id: 0xbd, offset: 0x8000000000000000)
46734441000: system.cpu0.workload.drivers: ioctl: AMDKFD_IOC_CREATE_EVENT
46734441000: system.cpu0.workload.drivers: amdkfd create events(event_id: 0xbe, offset: 0x8000000000000000)
46738580000: system.cpu0.workload.drivers: ioctl: AMDKFD_IOC_CREATE_EVENT
46738580000: system.cpu0.workload.drivers: amdkfd create events(event_id: 0xbf, offset: 0x8000000000000000)
46743827500: system.cpu0.workload.drivers: ioctl: AMDKFD_IOC_CREATE_EVENT
46743827500: system.cpu0.workload.drivers: amdkfd create events(event_id: 0xc0, offset: 0x8000000000000000)
46748605500: system.cpu0.workload.drivers: ioctl: AMDKFD_IOC_CREATE_EVENT
46748605500: system.cpu0.workload.drivers: amdkfd create events(event_id: 0xc1, offset: 0x8000000000000000)
46753462000: system.cpu0.workload.drivers: ioctl: AMDKFD_IOC_CREATE_EVENT
46753462000: system.cpu0.workload.drivers: amdkfd create events(event_id: 0xc2, offset: 0x8000000000000000)
46757790500: system.cpu0.workload.drivers: ioctl: AMDKFD_IOC_CREATE_EVENT
46757790500: system.cpu0.workload.drivers: amdkfd create events(event_id: 0xc3, offset: 0x8000000000000000)
46762589500: system.cpu0.workload.drivers: ioctl: AMDKFD_IOC_CREATE_EVENT
46762589500: system.cpu0.workload.drivers: amdkfd create events(event_id: 0xc4, offset: 0x8000000000000000)
46767441500: system.cpu0.workload.drivers: ioctl: AMDKFD_IOC_CREATE_EVENT
46767441500: system.cpu0.workload.drivers: amdkfd create events(event_id: 0xc5, offset: 0x8000000000000000)
46772063500: system.cpu0.workload.drivers: ioctl: AMDKFD_IOC_CREATE_EVENT
46772063500: system.cpu0.workload.drivers: amdkfd create events(event_id: 0xc6, offset: 0x8000000000000000)
46776477000: system.cpu0.workload.drivers: ioctl: AMDKFD_IOC_CREATE_EVENT
46776477000: system.cpu0.workload.drivers: amdkfd create events(event_id: 0xc7, offset: 0x8000000000000000)
46781003500: system.cpu0.workload.drivers: ioctl: AMDKFD_IOC_CREATE_EVENT
46781003500: system.cpu0.workload.drivers: amdkfd create events(event_id: 0xc8, offset: 0x8000000000000000)
46785242500: system.cpu0.workload.drivers: ioctl: AMDKFD_IOC_CREATE_EVENT
46785242500: system.cpu0.workload.drivers: amdkfd create events(event_id: 0xc9, offset: 0x8000000000000000)
46790058500: system.cpu0.workload.drivers: ioctl: AMDKFD_IOC_CREATE_EVENT
46790058500: system.cpu0.workload.drivers: amdkfd create events(event_id: 0xca, offset: 0x8000000000000000)
46794355500: system.cpu0.workload.drivers: ioctl: AMDKFD_IOC_CREATE_EVENT
46794355500: system.cpu0.workload.drivers: amdkfd create events(event_id: 0xcb, offset: 0x8000000000000000)
46799098000: system.cpu0.workload.drivers: ioctl: AMDKFD_IOC_CREATE_EVENT
46799098000: system.cpu0.workload.drivers: amdkfd create events(event_id: 0xcc, offset: 0x8000000000000000)
46803370000: system.cpu0.workload.drivers: ioctl: AMDKFD_IOC_CREATE_EVENT
46803370000: system.cpu0.workload.drivers: amdkfd create events(event_id: 0xcd, offset: 0x8000000000000000)
46808320500: system.cpu0.workload.drivers: ioctl: AMDKFD_IOC_CREATE_EVENT
46808320500: system.cpu0.workload.drivers: amdkfd create events(event_id: 0xce, offset: 0x8000000000000000)
46812631000: system.cpu0.workload.drivers: ioctl: AMDKFD_IOC_CREATE_EVENT
46812631000: system.cpu0.workload.drivers: amdkfd create events(event_id: 0xcf, offset: 0x8000000000000000)
46817577000: system.cpu0.workload.drivers: ioctl: AMDKFD_IOC_CREATE_EVENT
46817577000: system.cpu0.workload.drivers: amdkfd create events(event_id: 0xd0, offset: 0x8000000000000000)
46821906000: system.cpu0.workload.drivers: ioctl: AMDKFD_IOC_CREATE_EVENT
46821906000: system.cpu0.workload.drivers: amdkfd create events(event_id: 0xd1, offset: 0x8000000000000000)
46826891500: system.cpu0.workload.drivers: ioctl: AMDKFD_IOC_CREATE_EVENT
46826891500: system.cpu0.workload.drivers: amdkfd create events(event_id: 0xd2, offset: 0x8000000000000000)
46831330500: system.cpu0.workload.drivers: ioctl: AMDKFD_IOC_CREATE_EVENT
46831330500: system.cpu0.workload.drivers: amdkfd create events(event_id: 0xd3, offset: 0x8000000000000000)
46835921500: system.cpu0.workload.drivers: ioctl: AMDKFD_IOC_CREATE_EVENT
46835921500: system.cpu0.workload.drivers: amdkfd create events(event_id: 0xd4, offset: 0x8000000000000000)
46840482500: system.cpu0.workload.drivers: ioctl: AMDKFD_IOC_CREATE_EVENT
46840482500: system.cpu0.workload.drivers: amdkfd create events(event_id: 0xd5, offset: 0x8000000000000000)
46845176000: system.cpu0.workload.drivers: ioctl: AMDKFD_IOC_CREATE_EVENT
46845176000: system.cpu0.workload.drivers: amdkfd create events(event_id: 0xd6, offset: 0x8000000000000000)
46849615500: system.cpu0.workload.drivers: ioctl: AMDKFD_IOC_CREATE_EVENT
46849615500: system.cpu0.workload.drivers: amdkfd create events(event_id: 0xd7, offset: 0x8000000000000000)
46854086000: system.cpu0.workload.drivers: ioctl: AMDKFD_IOC_CREATE_EVENT
46854086000: system.cpu0.workload.drivers: amdkfd create events(event_id: 0xd8, offset: 0x8000000000000000)
46858438000: system.cpu0.workload.drivers: ioctl: AMDKFD_IOC_CREATE_EVENT
46858438000: system.cpu0.workload.drivers: amdkfd create events(event_id: 0xd9, offset: 0x8000000000000000)
46862955000: system.cpu0.workload.drivers: ioctl: AMDKFD_IOC_CREATE_EVENT
46862955000: system.cpu0.workload.drivers: amdkfd create events(event_id: 0xda, offset: 0x8000000000000000)
46867382500: system.cpu0.workload.drivers: ioctl: AMDKFD_IOC_CREATE_EVENT
46867382500: system.cpu0.workload.drivers: amdkfd create events(event_id: 0xdb, offset: 0x8000000000000000)
46872297500: system.cpu0.workload.drivers: ioctl: AMDKFD_IOC_CREATE_EVENT
46872297500: system.cpu0.workload.drivers: amdkfd create events(event_id: 0xdc, offset: 0x8000000000000000)
46876550500: system.cpu0.workload.drivers: ioctl: AMDKFD_IOC_CREATE_EVENT
46876550500: system.cpu0.workload.drivers: amdkfd create events(event_id: 0xdd, offset: 0x8000000000000000)
46881200000: system.cpu0.workload.drivers: ioctl: AMDKFD_IOC_CREATE_EVENT
46881200000: system.cpu0.workload.drivers: amdkfd create events(event_id: 0xde, offset: 0x8000000000000000)
46885418500: system.cpu0.workload.drivers: ioctl: AMDKFD_IOC_CREATE_EVENT
46885418500: system.cpu0.workload.drivers: amdkfd create events(event_id: 0xdf, offset: 0x8000000000000000)
46890725000: system.cpu0.workload.drivers: ioctl: AMDKFD_IOC_CREATE_EVENT
46890725000: system.cpu0.workload.drivers: amdkfd create events(event_id: 0xe0, offset: 0x8000000000000000)
46895013000: system.cpu0.workload.drivers: ioctl: AMDKFD_IOC_CREATE_EVENT
46895013000: system.cpu0.workload.drivers: amdkfd create events(event_id: 0xe1, offset: 0x8000000000000000)
46899810000: system.cpu0.workload.drivers: ioctl: AMDKFD_IOC_CREATE_EVENT
46899810000: system.cpu0.workload.drivers: amdkfd create events(event_id: 0xe2, offset: 0x8000000000000000)
46904305000: system.cpu0.workload.drivers: ioctl: AMDKFD_IOC_CREATE_EVENT
46904305000: system.cpu0.workload.drivers: amdkfd create events(event_id: 0xe3, offset: 0x8000000000000000)
46909016500: system.cpu0.workload.drivers: ioctl: AMDKFD_IOC_CREATE_EVENT
46909016500: system.cpu0.workload.drivers: amdkfd create events(event_id: 0xe4, offset: 0x8000000000000000)
46913337000: system.cpu0.workload.drivers: ioctl: AMDKFD_IOC_CREATE_EVENT
46913337000: system.cpu0.workload.drivers: amdkfd create events(event_id: 0xe5, offset: 0x8000000000000000)
46918177000: system.cpu0.workload.drivers: ioctl: AMDKFD_IOC_CREATE_EVENT
46918177000: system.cpu0.workload.drivers: amdkfd create events(event_id: 0xe6, offset: 0x8000000000000000)
46922864000: system.cpu0.workload.drivers: ioctl: AMDKFD_IOC_CREATE_EVENT
46922864000: system.cpu0.workload.drivers: amdkfd create events(event_id: 0xe7, offset: 0x8000000000000000)
46927343500: system.cpu0.workload.drivers: ioctl: AMDKFD_IOC_CREATE_EVENT
46927343500: system.cpu0.workload.drivers: amdkfd create events(event_id: 0xe8, offset: 0x8000000000000000)
46931753000: system.cpu0.workload.drivers: ioctl: AMDKFD_IOC_CREATE_EVENT
46931753000: system.cpu0.workload.drivers: amdkfd create events(event_id: 0xe9, offset: 0x8000000000000000)
46936139000: system.cpu0.workload.drivers: ioctl: AMDKFD_IOC_CREATE_EVENT
46936139000: system.cpu0.workload.drivers: amdkfd create events(event_id: 0xea, offset: 0x8000000000000000)
46940991500: system.cpu0.workload.drivers: ioctl: AMDKFD_IOC_CREATE_EVENT
46940991500: system.cpu0.workload.drivers: amdkfd create events(event_id: 0xeb, offset: 0x8000000000000000)
46945643000: system.cpu0.workload.drivers: ioctl: AMDKFD_IOC_CREATE_EVENT
46945643000: system.cpu0.workload.drivers: amdkfd create events(event_id: 0xec, offset: 0x8000000000000000)
46949913500: system.cpu0.workload.drivers: ioctl: AMDKFD_IOC_CREATE_EVENT
46949913500: system.cpu0.workload.drivers: amdkfd create events(event_id: 0xed, offset: 0x8000000000000000)
46954905500: system.cpu0.workload.drivers: ioctl: AMDKFD_IOC_CREATE_EVENT
46954905500: system.cpu0.workload.drivers: amdkfd create events(event_id: 0xee, offset: 0x8000000000000000)
46959231000: system.cpu0.workload.drivers: ioctl: AMDKFD_IOC_CREATE_EVENT
46959231000: system.cpu0.workload.drivers: amdkfd create events(event_id: 0xef, offset: 0x8000000000000000)
46963843500: system.cpu0.workload.drivers: ioctl: AMDKFD_IOC_CREATE_EVENT
46963843500: system.cpu0.workload.drivers: amdkfd create events(event_id: 0xf0, offset: 0x8000000000000000)
46968149000: system.cpu0.workload.drivers: ioctl: AMDKFD_IOC_CREATE_EVENT
46968149000: system.cpu0.workload.drivers: amdkfd create events(event_id: 0xf1, offset: 0x8000000000000000)
46973005500: system.cpu0.workload.drivers: ioctl: AMDKFD_IOC_CREATE_EVENT
46973005500: system.cpu0.workload.drivers: amdkfd create events(event_id: 0xf2, offset: 0x8000000000000000)
46977421500: system.cpu0.workload.drivers: ioctl: AMDKFD_IOC_CREATE_EVENT
46977421500: system.cpu0.workload.drivers: amdkfd create events(event_id: 0xf3, offset: 0x8000000000000000)
46982137500: system.cpu0.workload.drivers: ioctl: AMDKFD_IOC_CREATE_EVENT
46982137500: system.cpu0.workload.drivers: amdkfd create events(event_id: 0xf4, offset: 0x8000000000000000)
46986390500: system.cpu0.workload.drivers: ioctl: AMDKFD_IOC_CREATE_EVENT
46986390500: system.cpu0.workload.drivers: amdkfd create events(event_id: 0xf5, offset: 0x8000000000000000)
46991149500: system.cpu0.workload.drivers: ioctl: AMDKFD_IOC_CREATE_EVENT
46991149500: system.cpu0.workload.drivers: amdkfd create events(event_id: 0xf6, offset: 0x8000000000000000)
46995442000: system.cpu0.workload.drivers: ioctl: AMDKFD_IOC_CREATE_EVENT
46995442000: system.cpu0.workload.drivers: amdkfd create events(event_id: 0xf7, offset: 0x8000000000000000)
47000285500: system.cpu0.workload.drivers: ioctl: AMDKFD_IOC_CREATE_EVENT
47000285500: system.cpu0.workload.drivers: amdkfd create events(event_id: 0xf8, offset: 0x8000000000000000)
47004745500: system.cpu0.workload.drivers: ioctl: AMDKFD_IOC_CREATE_EVENT
47004745500: system.cpu0.workload.drivers: amdkfd create events(event_id: 0xf9, offset: 0x8000000000000000)
47009800000: system.cpu0.workload.drivers: ioctl: AMDKFD_IOC_CREATE_EVENT
47009800000: system.cpu0.workload.drivers: amdkfd create events(event_id: 0xfa, offset: 0x8000000000000000)
47014107500: system.cpu0.workload.drivers: ioctl: AMDKFD_IOC_CREATE_EVENT
47014107500: system.cpu0.workload.drivers: amdkfd create events(event_id: 0xfb, offset: 0x8000000000000000)
47018795000: system.cpu0.workload.drivers: ioctl: AMDKFD_IOC_CREATE_EVENT
47018795000: system.cpu0.workload.drivers: amdkfd create events(event_id: 0xfc, offset: 0x8000000000000000)
47023419000: system.cpu0.workload.drivers: ioctl: AMDKFD_IOC_CREATE_EVENT
47023419000: system.cpu0.workload.drivers: amdkfd create events(event_id: 0xfd, offset: 0x8000000000000000)
47027921000: system.cpu0.workload.drivers: ioctl: AMDKFD_IOC_CREATE_EVENT
47027921000: system.cpu0.workload.drivers: amdkfd create events(event_id: 0xfe, offset: 0x8000000000000000)
47032452000: system.cpu0.workload.drivers: ioctl: AMDKFD_IOC_CREATE_EVENT
47032452000: system.cpu0.workload.drivers: amdkfd create events(event_id: 0xff, offset: 0x8000000000000000)
47036848000: system.cpu0.workload.drivers: ioctl: AMDKFD_IOC_CREATE_EVENT
47036848000: system.cpu0.workload.drivers: amdkfd create events(event_id: 0x100, offset: 0x8000000000000000)
47041349000: system.cpu0.workload.drivers: ioctl: AMDKFD_IOC_CREATE_EVENT
47041349000: system.cpu0.workload.drivers: amdkfd create events(event_id: 0x101, offset: 0x8000000000000000)
47045974000: system.cpu0.workload.drivers: ioctl: AMDKFD_IOC_CREATE_EVENT
47045974000: system.cpu0.workload.drivers: amdkfd create events(event_id: 0x102, offset: 0x8000000000000000)
47050249500: system.cpu0.workload.drivers: ioctl: AMDKFD_IOC_CREATE_EVENT
47050249500: system.cpu0.workload.drivers: amdkfd create events(event_id: 0x103, offset: 0x8000000000000000)
47055326000: system.cpu0.workload.drivers: ioctl: AMDKFD_IOC_CREATE_EVENT
47055326000: system.cpu0.workload.drivers: amdkfd create events(event_id: 0x104, offset: 0x8000000000000000)
47059747500: system.cpu0.workload.drivers: ioctl: AMDKFD_IOC_CREATE_EVENT
47059747500: system.cpu0.workload.drivers: amdkfd create events(event_id: 0x105, offset: 0x8000000000000000)
47064462000: system.cpu0.workload.drivers: ioctl: AMDKFD_IOC_CREATE_EVENT
47064462000: system.cpu0.workload.drivers: amdkfd create events(event_id: 0x106, offset: 0x8000000000000000)
47068987500: system.cpu0.workload.drivers: ioctl: AMDKFD_IOC_CREATE_EVENT
47068987500: system.cpu0.workload.drivers: amdkfd create events(event_id: 0x107, offset: 0x8000000000000000)
47073633500: system.cpu0.workload.drivers: ioctl: AMDKFD_IOC_CREATE_EVENT
47073633500: system.cpu0.workload.drivers: amdkfd create events(event_id: 0x108, offset: 0x8000000000000000)
47078262000: system.cpu0.workload.drivers: ioctl: AMDKFD_IOC_CREATE_EVENT
47078262000: system.cpu0.workload.drivers: amdkfd create events(event_id: 0x109, offset: 0x8000000000000000)
47082698500: system.cpu0.workload.drivers: ioctl: AMDKFD_IOC_CREATE_EVENT
47082698500: system.cpu0.workload.drivers: amdkfd create events(event_id: 0x10a, offset: 0x8000000000000000)
47086970000: system.cpu0.workload.drivers: ioctl: AMDKFD_IOC_CREATE_EVENT
47086970000: system.cpu0.workload.drivers: amdkfd create events(event_id: 0x10b, offset: 0x8000000000000000)
47091644000: system.cpu0.workload.drivers: ioctl: AMDKFD_IOC_CREATE_EVENT
47091644000: system.cpu0.workload.drivers: amdkfd create events(event_id: 0x10c, offset: 0x8000000000000000)
47095944500: system.cpu0.workload.drivers: ioctl: AMDKFD_IOC_CREATE_EVENT
47095944500: system.cpu0.workload.drivers: amdkfd create events(event_id: 0x10d, offset: 0x8000000000000000)
47102886000: system.cpu0.workload.drivers: ioctl: AMDKFD_IOC_CREATE_EVENT
47102886000: system.cpu0.workload.drivers: amdkfd create events(event_id: 0x10e, offset: 0x8000000000000000)
47106536000: system.cpu0.workload.drivers: ioctl: AMDKFD_IOC_CREATE_EVENT
47106536000: system.cpu0.workload.drivers: amdkfd create events(event_id: 0x10f, offset: 0x8000000000000000)
47110274500: system.cpu0.workload.drivers: ioctl: AMDKFD_IOC_CREATE_EVENT
47110274500: system.cpu0.workload.drivers: amdkfd create events(event_id: 0x110, offset: 0x8000000000000000)
47113900500: system.cpu0.workload.drivers: ioctl: AMDKFD_IOC_CREATE_EVENT
47113900500: system.cpu0.workload.drivers: amdkfd create events(event_id: 0x111, offset: 0x8000000000000000)
47118137000: system.cpu0.workload.drivers: ioctl: AMDKFD_IOC_CREATE_EVENT
47118137000: system.cpu0.workload.drivers: amdkfd create events(event_id: 0x112, offset: 0x8000000000000000)
47122493000: system.cpu0.workload.drivers: ioctl: AMDKFD_IOC_CREATE_EVENT
47122493000: system.cpu0.workload.drivers: amdkfd create events(event_id: 0x113, offset: 0x8000000000000000)
47127094000: system.cpu0.workload.drivers: ioctl: AMDKFD_IOC_CREATE_EVENT
47127094000: system.cpu0.workload.drivers: amdkfd create events(event_id: 0x114, offset: 0x8000000000000000)
47131699500: system.cpu0.workload.drivers: ioctl: AMDKFD_IOC_CREATE_EVENT
47131699500: system.cpu0.workload.drivers: amdkfd create events(event_id: 0x115, offset: 0x8000000000000000)
47136575500: system.cpu0.workload.drivers: ioctl: AMDKFD_IOC_CREATE_EVENT
47136575500: system.cpu0.workload.drivers: amdkfd create events(event_id: 0x116, offset: 0x8000000000000000)
47140925500: system.cpu0.workload.drivers: ioctl: AMDKFD_IOC_CREATE_EVENT
47140925500: system.cpu0.workload.drivers: amdkfd create events(event_id: 0x117, offset: 0x8000000000000000)
47145430500: system.cpu0.workload.drivers: ioctl: AMDKFD_IOC_CREATE_EVENT
47145430500: system.cpu0.workload.drivers: amdkfd create events(event_id: 0x118, offset: 0x8000000000000000)
47149704500: system.cpu0.workload.drivers: ioctl: AMDKFD_IOC_CREATE_EVENT
47149704500: system.cpu0.workload.drivers: amdkfd create events(event_id: 0x119, offset: 0x8000000000000000)
47154855000: system.cpu0.workload.drivers: ioctl: AMDKFD_IOC_CREATE_EVENT
47154855000: system.cpu0.workload.drivers: amdkfd create events(event_id: 0x11a, offset: 0x8000000000000000)
47159234000: system.cpu0.workload.drivers: ioctl: AMDKFD_IOC_CREATE_EVENT
47159234000: system.cpu0.workload.drivers: amdkfd create events(event_id: 0x11b, offset: 0x8000000000000000)
47164486500: system.cpu0.workload.drivers: ioctl: AMDKFD_IOC_CREATE_EVENT
47164486500: system.cpu0.workload.drivers: amdkfd create events(event_id: 0x11c, offset: 0x8000000000000000)
47168674000: system.cpu0.workload.drivers: ioctl: AMDKFD_IOC_CREATE_EVENT
47168674000: system.cpu0.workload.drivers: amdkfd create events(event_id: 0x11d, offset: 0x8000000000000000)
47173191500: system.cpu0.workload.drivers: ioctl: AMDKFD_IOC_CREATE_EVENT
47173191500: system.cpu0.workload.drivers: amdkfd create events(event_id: 0x11e, offset: 0x8000000000000000)
47178017500: system.cpu0.workload.drivers: ioctl: AMDKFD_IOC_CREATE_EVENT
47178017500: system.cpu0.workload.drivers: amdkfd create events(event_id: 0x11f, offset: 0x8000000000000000)
47182573500: system.cpu0.workload.drivers: ioctl: AMDKFD_IOC_CREATE_EVENT
47182573500: system.cpu0.workload.drivers: amdkfd create events(event_id: 0x120, offset: 0x8000000000000000)
47187279000: system.cpu0.workload.drivers: ioctl: AMDKFD_IOC_CREATE_EVENT
47187279000: system.cpu0.workload.drivers: amdkfd create events(event_id: 0x121, offset: 0x8000000000000000)
47191749500: system.cpu0.workload.drivers: ioctl: AMDKFD_IOC_CREATE_EVENT
47191749500: system.cpu0.workload.drivers: amdkfd create events(event_id: 0x122, offset: 0x8000000000000000)
47196286500: system.cpu0.workload.drivers: ioctl: AMDKFD_IOC_CREATE_EVENT
47196286500: system.cpu0.workload.drivers: amdkfd create events(event_id: 0x123, offset: 0x8000000000000000)
47200879000: system.cpu0.workload.drivers: ioctl: AMDKFD_IOC_CREATE_EVENT
47200879000: system.cpu0.workload.drivers: amdkfd create events(event_id: 0x124, offset: 0x8000000000000000)
47205163000: system.cpu0.workload.drivers: ioctl: AMDKFD_IOC_CREATE_EVENT
47205163000: system.cpu0.workload.drivers: amdkfd create events(event_id: 0x125, offset: 0x8000000000000000)
47210330000: system.cpu0.workload.drivers: ioctl: AMDKFD_IOC_CREATE_EVENT
47210330000: system.cpu0.workload.drivers: amdkfd create events(event_id: 0x126, offset: 0x8000000000000000)
47215105500: system.cpu0.workload.drivers: ioctl: AMDKFD_IOC_CREATE_EVENT
47215105500: system.cpu0.workload.drivers: amdkfd create events(event_id: 0x127, offset: 0x8000000000000000)
47220001500: system.cpu0.workload.drivers: ioctl: AMDKFD_IOC_CREATE_EVENT
47220001500: system.cpu0.workload.drivers: amdkfd create events(event_id: 0x128, offset: 0x8000000000000000)
47224735000: system.cpu0.workload.drivers: ioctl: AMDKFD_IOC_CREATE_EVENT
47224735000: system.cpu0.workload.drivers: amdkfd create events(event_id: 0x129, offset: 0x8000000000000000)
47229396000: system.cpu0.workload.drivers: ioctl: AMDKFD_IOC_CREATE_EVENT
47229396000: system.cpu0.workload.drivers: amdkfd create events(event_id: 0x12a, offset: 0x8000000000000000)
47234007000: system.cpu0.workload.drivers: ioctl: AMDKFD_IOC_CREATE_EVENT
47234007000: system.cpu0.workload.drivers: amdkfd create events(event_id: 0x12b, offset: 0x8000000000000000)
47238555500: system.cpu0.workload.drivers: ioctl: AMDKFD_IOC_CREATE_EVENT
47238555500: system.cpu0.workload.drivers: amdkfd create events(event_id: 0x12c, offset: 0x8000000000000000)
47242861000: system.cpu0.workload.drivers: ioctl: AMDKFD_IOC_CREATE_EVENT
47242861000: system.cpu0.workload.drivers: amdkfd create events(event_id: 0x12d, offset: 0x8000000000000000)
47247515500: system.cpu0.workload.drivers: ioctl: AMDKFD_IOC_CREATE_EVENT
47247515500: system.cpu0.workload.drivers: amdkfd create events(event_id: 0x12e, offset: 0x8000000000000000)
47251779500: system.cpu0.workload.drivers: ioctl: AMDKFD_IOC_CREATE_EVENT
47251779500: system.cpu0.workload.drivers: amdkfd create events(event_id: 0x12f, offset: 0x8000000000000000)
47256691500: system.cpu0.workload.drivers: ioctl: AMDKFD_IOC_CREATE_EVENT
47256691500: system.cpu0.workload.drivers: amdkfd create events(event_id: 0x130, offset: 0x8000000000000000)
47260939000: system.cpu0.workload.drivers: ioctl: AMDKFD_IOC_CREATE_EVENT
47260939000: system.cpu0.workload.drivers: amdkfd create events(event_id: 0x131, offset: 0x8000000000000000)
47265681000: system.cpu0.workload.drivers: ioctl: AMDKFD_IOC_CREATE_EVENT
47265681000: system.cpu0.workload.drivers: amdkfd create events(event_id: 0x132, offset: 0x8000000000000000)
47269969000: system.cpu0.workload.drivers: ioctl: AMDKFD_IOC_CREATE_EVENT
47269969000: system.cpu0.workload.drivers: amdkfd create events(event_id: 0x133, offset: 0x8000000000000000)
47274487000: system.cpu0.workload.drivers: ioctl: AMDKFD_IOC_CREATE_EVENT
47274487000: system.cpu0.workload.drivers: amdkfd create events(event_id: 0x134, offset: 0x8000000000000000)
47279236000: system.cpu0.workload.drivers: ioctl: AMDKFD_IOC_CREATE_EVENT
47279236000: system.cpu0.workload.drivers: amdkfd create events(event_id: 0x135, offset: 0x8000000000000000)
47283866000: system.cpu0.workload.drivers: ioctl: AMDKFD_IOC_CREATE_EVENT
47283866000: system.cpu0.workload.drivers: amdkfd create events(event_id: 0x136, offset: 0x8000000000000000)
47288209500: system.cpu0.workload.drivers: ioctl: AMDKFD_IOC_CREATE_EVENT
47288209500: system.cpu0.workload.drivers: amdkfd create events(event_id: 0x137, offset: 0x8000000000000000)
47292735500: system.cpu0.workload.drivers: ioctl: AMDKFD_IOC_CREATE_EVENT
47292735500: system.cpu0.workload.drivers: amdkfd create events(event_id: 0x138, offset: 0x8000000000000000)
47297247500: system.cpu0.workload.drivers: ioctl: AMDKFD_IOC_CREATE_EVENT
47297247500: system.cpu0.workload.drivers: amdkfd create events(event_id: 0x139, offset: 0x8000000000000000)
47302265500: system.cpu0.workload.drivers: ioctl: AMDKFD_IOC_CREATE_EVENT
47302265500: system.cpu0.workload.drivers: amdkfd create events(event_id: 0x13a, offset: 0x8000000000000000)
47306551000: system.cpu0.workload.drivers: ioctl: AMDKFD_IOC_CREATE_EVENT
47306551000: system.cpu0.workload.drivers: amdkfd create events(event_id: 0x13b, offset: 0x8000000000000000)
47311145000: system.cpu0.workload.drivers: ioctl: AMDKFD_IOC_CREATE_EVENT
47311145000: system.cpu0.workload.drivers: amdkfd create events(event_id: 0x13c, offset: 0x8000000000000000)
47316281000: system.cpu0.workload.drivers: ioctl: AMDKFD_IOC_CREATE_EVENT
47316281000: system.cpu0.workload.drivers: amdkfd create events(event_id: 0x13d, offset: 0x8000000000000000)
47320941500: system.cpu0.workload.drivers: ioctl: AMDKFD_IOC_CREATE_EVENT
47320941500: system.cpu0.workload.drivers: amdkfd create events(event_id: 0x13e, offset: 0x8000000000000000)
47325427500: system.cpu0.workload.drivers: ioctl: AMDKFD_IOC_CREATE_EVENT
47325427500: system.cpu0.workload.drivers: amdkfd create events(event_id: 0x13f, offset: 0x8000000000000000)
47329992500: system.cpu0.workload.drivers: ioctl: AMDKFD_IOC_CREATE_EVENT
47329992500: system.cpu0.workload.drivers: amdkfd create events(event_id: 0x140, offset: 0x8000000000000000)
47334332500: system.cpu0.workload.drivers: ioctl: AMDKFD_IOC_CREATE_EVENT
47334332500: system.cpu0.workload.drivers: amdkfd create events(event_id: 0x141, offset: 0x8000000000000000)
47339495000: system.cpu0.workload.drivers: ioctl: AMDKFD_IOC_CREATE_EVENT
47339495000: system.cpu0.workload.drivers: amdkfd create events(event_id: 0x142, offset: 0x8000000000000000)
47343790500: system.cpu0.workload.drivers: ioctl: AMDKFD_IOC_CREATE_EVENT
47343790500: system.cpu0.workload.drivers: amdkfd create events(event_id: 0x143, offset: 0x8000000000000000)
47348322500: system.cpu0.workload.drivers: ioctl: AMDKFD_IOC_CREATE_EVENT
47348322500: system.cpu0.workload.drivers: amdkfd create events(event_id: 0x144, offset: 0x8000000000000000)
47352631500: system.cpu0.workload.drivers: ioctl: AMDKFD_IOC_CREATE_EVENT
47352631500: system.cpu0.workload.drivers: amdkfd create events(event_id: 0x145, offset: 0x8000000000000000)
47357464000: system.cpu0.workload.drivers: ioctl: AMDKFD_IOC_CREATE_EVENT
47357464000: system.cpu0.workload.drivers: amdkfd create events(event_id: 0x146, offset: 0x8000000000000000)
47361557000: system.cpu0.workload.drivers: ioctl: AMDKFD_IOC_CREATE_EVENT
47361557000: system.cpu0.workload.drivers: amdkfd create events(event_id: 0x147, offset: 0x8000000000000000)
47366689500: system.cpu0.workload.drivers: ioctl: AMDKFD_IOC_CREATE_EVENT
47366689500: system.cpu0.workload.drivers: amdkfd create events(event_id: 0x148, offset: 0x8000000000000000)
47371099500: system.cpu0.workload.drivers: ioctl: AMDKFD_IOC_CREATE_EVENT
47371099500: system.cpu0.workload.drivers: amdkfd create events(event_id: 0x149, offset: 0x8000000000000000)
47375541000: system.cpu0.workload.drivers: ioctl: AMDKFD_IOC_CREATE_EVENT
47375541000: system.cpu0.workload.drivers: amdkfd create events(event_id: 0x14a, offset: 0x8000000000000000)
47380075000: system.cpu0.workload.drivers: ioctl: AMDKFD_IOC_CREATE_EVENT
47380075000: system.cpu0.workload.drivers: amdkfd create events(event_id: 0x14b, offset: 0x8000000000000000)
47384869000: system.cpu0.workload.drivers: ioctl: AMDKFD_IOC_CREATE_EVENT
47384869000: system.cpu0.workload.drivers: amdkfd create events(event_id: 0x14c, offset: 0x8000000000000000)
47389502500: system.cpu0.workload.drivers: ioctl: AMDKFD_IOC_CREATE_EVENT
47389502500: system.cpu0.workload.drivers: amdkfd create events(event_id: 0x14d, offset: 0x8000000000000000)
47394062500: system.cpu0.workload.drivers: ioctl: AMDKFD_IOC_CREATE_EVENT
47394062500: system.cpu0.workload.drivers: amdkfd create events(event_id: 0x14e, offset: 0x8000000000000000)
47398331000: system.cpu0.workload.drivers: ioctl: AMDKFD_IOC_CREATE_EVENT
47398331000: system.cpu0.workload.drivers: amdkfd create events(event_id: 0x14f, offset: 0x8000000000000000)
47403123500: system.cpu0.workload.drivers: ioctl: AMDKFD_IOC_CREATE_EVENT
47403123500: system.cpu0.workload.drivers: amdkfd create events(event_id: 0x150, offset: 0x8000000000000000)
47407344500: system.cpu0.workload.drivers: ioctl: AMDKFD_IOC_CREATE_EVENT
47407344500: system.cpu0.workload.drivers: amdkfd create events(event_id: 0x151, offset: 0x8000000000000000)
47412912500: system.cpu0.workload.drivers: ioctl: AMDKFD_IOC_CREATE_EVENT
47412912500: system.cpu0.workload.drivers: amdkfd create events(event_id: 0x152, offset: 0x8000000000000000)
47417205000: system.cpu0.workload.drivers: ioctl: AMDKFD_IOC_CREATE_EVENT
47417205000: system.cpu0.workload.drivers: amdkfd create events(event_id: 0x153, offset: 0x8000000000000000)
47421850500: system.cpu0.workload.drivers: ioctl: AMDKFD_IOC_CREATE_EVENT
47421850500: system.cpu0.workload.drivers: amdkfd create events(event_id: 0x154, offset: 0x8000000000000000)
47426309000: system.cpu0.workload.drivers: ioctl: AMDKFD_IOC_CREATE_EVENT
47426309000: system.cpu0.workload.drivers: amdkfd create events(event_id: 0x155, offset: 0x8000000000000000)
47430928500: system.cpu0.workload.drivers: ioctl: AMDKFD_IOC_CREATE_EVENT
47430928500: system.cpu0.workload.drivers: amdkfd create events(event_id: 0x156, offset: 0x8000000000000000)
47435275000: system.cpu0.workload.drivers: ioctl: AMDKFD_IOC_CREATE_EVENT
47435275000: system.cpu0.workload.drivers: amdkfd create events(event_id: 0x157, offset: 0x8000000000000000)
47440193000: system.cpu0.workload.drivers: ioctl: AMDKFD_IOC_CREATE_EVENT
47440193000: system.cpu0.workload.drivers: amdkfd create events(event_id: 0x158, offset: 0x8000000000000000)
47444489500: system.cpu0.workload.drivers: ioctl: AMDKFD_IOC_CREATE_EVENT
47444489500: system.cpu0.workload.drivers: amdkfd create events(event_id: 0x159, offset: 0x8000000000000000)
47449170500: system.cpu0.workload.drivers: ioctl: AMDKFD_IOC_CREATE_EVENT
47449170500: system.cpu0.workload.drivers: amdkfd create events(event_id: 0x15a, offset: 0x8000000000000000)
47453463500: system.cpu0.workload.drivers: ioctl: AMDKFD_IOC_CREATE_EVENT
47453463500: system.cpu0.workload.drivers: amdkfd create events(event_id: 0x15b, offset: 0x8000000000000000)
47458066500: system.cpu0.workload.drivers: ioctl: AMDKFD_IOC_CREATE_EVENT
47458066500: system.cpu0.workload.drivers: amdkfd create events(event_id: 0x15c, offset: 0x8000000000000000)
47462882500: system.cpu0.workload.drivers: ioctl: AMDKFD_IOC_CREATE_EVENT
47462882500: system.cpu0.workload.drivers: amdkfd create events(event_id: 0x15d, offset: 0x8000000000000000)
47467600000: system.cpu0.workload.drivers: ioctl: AMDKFD_IOC_CREATE_EVENT
47467600000: system.cpu0.workload.drivers: amdkfd create events(event_id: 0x15e, offset: 0x8000000000000000)
47472207000: system.cpu0.workload.drivers: ioctl: AMDKFD_IOC_CREATE_EVENT
47472207000: system.cpu0.workload.drivers: amdkfd create events(event_id: 0x15f, offset: 0x8000000000000000)
47476691000: system.cpu0.workload.drivers: ioctl: AMDKFD_IOC_CREATE_EVENT
47476691000: system.cpu0.workload.drivers: amdkfd create events(event_id: 0x160, offset: 0x8000000000000000)
47481215000: system.cpu0.workload.drivers: ioctl: AMDKFD_IOC_CREATE_EVENT
47481215000: system.cpu0.workload.drivers: amdkfd create events(event_id: 0x161, offset: 0x8000000000000000)
47486263500: system.cpu0.workload.drivers: ioctl: AMDKFD_IOC_CREATE_EVENT
47486263500: system.cpu0.workload.drivers: amdkfd create events(event_id: 0x162, offset: 0x8000000000000000)
47490729000: system.cpu0.workload.drivers: ioctl: AMDKFD_IOC_CREATE_EVENT
47490729000: system.cpu0.workload.drivers: amdkfd create events(event_id: 0x163, offset: 0x8000000000000000)
47495594500: system.cpu0.workload.drivers: ioctl: AMDKFD_IOC_CREATE_EVENT
47495594500: system.cpu0.workload.drivers: amdkfd create events(event_id: 0x164, offset: 0x8000000000000000)
47500003500: system.cpu0.workload.drivers: ioctl: AMDKFD_IOC_CREATE_EVENT
47500003500: system.cpu0.workload.drivers: amdkfd create events(event_id: 0x165, offset: 0x8000000000000000)
47504976000: system.cpu0.workload.drivers: ioctl: AMDKFD_IOC_CREATE_EVENT
47504976000: system.cpu0.workload.drivers: amdkfd create events(event_id: 0x166, offset: 0x8000000000000000)
47509446000: system.cpu0.workload.drivers: ioctl: AMDKFD_IOC_CREATE_EVENT
47509446000: system.cpu0.workload.drivers: amdkfd create events(event_id: 0x167, offset: 0x8000000000000000)
47514207500: system.cpu0.workload.drivers: ioctl: AMDKFD_IOC_CREATE_EVENT
47514207500: system.cpu0.workload.drivers: amdkfd create events(event_id: 0x168, offset: 0x8000000000000000)
47518692000: system.cpu0.workload.drivers: ioctl: AMDKFD_IOC_CREATE_EVENT
47518692000: system.cpu0.workload.drivers: amdkfd create events(event_id: 0x169, offset: 0x8000000000000000)
47523317500: system.cpu0.workload.drivers: ioctl: AMDKFD_IOC_CREATE_EVENT
47523317500: system.cpu0.workload.drivers: amdkfd create events(event_id: 0x16a, offset: 0x8000000000000000)
47528047500: system.cpu0.workload.drivers: ioctl: AMDKFD_IOC_CREATE_EVENT
47528047500: system.cpu0.workload.drivers: amdkfd create events(event_id: 0x16b, offset: 0x8000000000000000)
47532807500: system.cpu0.workload.drivers: ioctl: AMDKFD_IOC_CREATE_EVENT
47532807500: system.cpu0.workload.drivers: amdkfd create events(event_id: 0x16c, offset: 0x8000000000000000)
47537119000: system.cpu0.workload.drivers: ioctl: AMDKFD_IOC_CREATE_EVENT
47537119000: system.cpu0.workload.drivers: amdkfd create events(event_id: 0x16d, offset: 0x8000000000000000)
47542041500: system.cpu0.workload.drivers: ioctl: AMDKFD_IOC_CREATE_EVENT
47542041500: system.cpu0.workload.drivers: amdkfd create events(event_id: 0x16e, offset: 0x8000000000000000)
47546532000: system.cpu0.workload.drivers: ioctl: AMDKFD_IOC_CREATE_EVENT
47546532000: system.cpu0.workload.drivers: amdkfd create events(event_id: 0x16f, offset: 0x8000000000000000)
47551302500: system.cpu0.workload.drivers: ioctl: AMDKFD_IOC_CREATE_EVENT
47551302500: system.cpu0.workload.drivers: amdkfd create events(event_id: 0x170, offset: 0x8000000000000000)
47555605000: system.cpu0.workload.drivers: ioctl: AMDKFD_IOC_CREATE_EVENT
47555605000: system.cpu0.workload.drivers: amdkfd create events(event_id: 0x171, offset: 0x8000000000000000)
47560004500: system.cpu0.workload.drivers: ioctl: AMDKFD_IOC_CREATE_EVENT
47560004500: system.cpu0.workload.drivers: amdkfd create events(event_id: 0x172, offset: 0x8000000000000000)
47564901500: system.cpu0.workload.drivers: ioctl: AMDKFD_IOC_CREATE_EVENT
47564901500: system.cpu0.workload.drivers: amdkfd create events(event_id: 0x173, offset: 0x8000000000000000)
47569405000: system.cpu0.workload.drivers: ioctl: AMDKFD_IOC_CREATE_EVENT
47569405000: system.cpu0.workload.drivers: amdkfd create events(event_id: 0x174, offset: 0x8000000000000000)
47573692500: system.cpu0.workload.drivers: ioctl: AMDKFD_IOC_CREATE_EVENT
47573692500: system.cpu0.workload.drivers: amdkfd create events(event_id: 0x175, offset: 0x8000000000000000)
47578586000: system.cpu0.workload.drivers: ioctl: AMDKFD_IOC_CREATE_EVENT
47578586000: system.cpu0.workload.drivers: amdkfd create events(event_id: 0x176, offset: 0x8000000000000000)
47583152000: system.cpu0.workload.drivers: ioctl: AMDKFD_IOC_CREATE_EVENT
47583152000: system.cpu0.workload.drivers: amdkfd create events(event_id: 0x177, offset: 0x8000000000000000)
47588135000: system.cpu0.workload.drivers: ioctl: AMDKFD_IOC_CREATE_EVENT
[...]
248148180000: system.cpu0.workload.drivers: ioctl: AMDKFD_IOC_DESTROY_EVENT
248148180000: system.cpu0.workload.drivers: amdkfd destroying event 400
248151531000: system.cpu0.workload.drivers: ioctl: AMDKFD_IOC_DESTROY_EVENT
248151531000: system.cpu0.workload.drivers: amdkfd destroying event 401
248154798500: system.cpu0.workload.drivers: ioctl: AMDKFD_IOC_DESTROY_EVENT
248154798500: system.cpu0.workload.drivers: amdkfd destroying event 402
248158046500: system.cpu0.workload.drivers: ioctl: AMDKFD_IOC_DESTROY_EVENT
248158046500: system.cpu0.workload.drivers: amdkfd destroying event 403
248161943500: system.cpu0.workload.drivers: ioctl: AMDKFD_IOC_DESTROY_EVENT
248161943500: system.cpu0.workload.drivers: amdkfd destroying event 404
248164935500: system.cpu0.workload.drivers: ioctl: AMDKFD_IOC_DESTROY_EVENT
248164935500: system.cpu0.workload.drivers: amdkfd destroying event 405
248168076500: system.cpu0.workload.drivers: ioctl: AMDKFD_IOC_DESTROY_EVENT
248168076500: system.cpu0.workload.drivers: amdkfd destroying event 406
248171413500: system.cpu0.workload.drivers: ioctl: AMDKFD_IOC_DESTROY_EVENT
248171413500: system.cpu0.workload.drivers: amdkfd destroying event 407
248175016500: system.cpu0.workload.drivers: ioctl: AMDKFD_IOC_DESTROY_EVENT
248175016500: system.cpu0.workload.drivers: amdkfd destroying event 408
248178690500: system.cpu0.workload.drivers: ioctl: AMDKFD_IOC_DESTROY_EVENT
248178690500: system.cpu0.workload.drivers: amdkfd destroying event 409
248181884500: system.cpu0.workload.drivers: ioctl: AMDKFD_IOC_DESTROY_EVENT
248181884500: system.cpu0.workload.drivers: amdkfd destroying event 410
248185229500: system.cpu0.workload.drivers: ioctl: AMDKFD_IOC_DESTROY_EVENT
248185229500: system.cpu0.workload.drivers: amdkfd destroying event 411
248189493000: system.cpu0.workload.drivers: ioctl: AMDKFD_IOC_DESTROY_EVENT
248189493000: system.cpu0.workload.drivers: amdkfd destroying event 412
248192432000: system.cpu0.workload.drivers: ioctl: AMDKFD_IOC_DESTROY_EVENT
248192432000: system.cpu0.workload.drivers: amdkfd destroying event 413
248195633500: system.cpu0.workload.drivers: ioctl: AMDKFD_IOC_DESTROY_EVENT
248195633500: system.cpu0.workload.drivers: amdkfd destroying event 414
248198616000: system.cpu0.workload.drivers: ioctl: AMDKFD_IOC_DESTROY_EVENT
248198616000: system.cpu0.workload.drivers: amdkfd destroying event 415
248202139500: system.cpu0.workload.drivers: ioctl: AMDKFD_IOC_DESTROY_EVENT
248202139500: system.cpu0.workload.drivers: amdkfd destroying event 416
248205129500: system.cpu0.workload.drivers: ioctl: AMDKFD_IOC_DESTROY_EVENT
248205129500: system.cpu0.workload.drivers: amdkfd destroying event 417
248208425500: system.cpu0.workload.drivers: ioctl: AMDKFD_IOC_DESTROY_EVENT
248208425500: system.cpu0.workload.drivers: amdkfd destroying event 418
248211458000: system.cpu0.workload.drivers: ioctl: AMDKFD_IOC_DESTROY_EVENT
248211458000: system.cpu0.workload.drivers: amdkfd destroying event 419
248214889500: system.cpu0.workload.drivers: ioctl: AMDKFD_IOC_DESTROY_EVENT
248214889500: system.cpu0.workload.drivers: amdkfd destroying event 420
248218105000: system.cpu0.workload.drivers: ioctl: AMDKFD_IOC_DESTROY_EVENT
248218105000: system.cpu0.workload.drivers: amdkfd destroying event 421
248221141000: system.cpu0.workload.drivers: ioctl: AMDKFD_IOC_DESTROY_EVENT
248221141000: system.cpu0.workload.drivers: amdkfd destroying event 422
248224091000: system.cpu0.workload.drivers: ioctl: AMDKFD_IOC_DESTROY_EVENT
248224091000: system.cpu0.workload.drivers: amdkfd destroying event 423
248227049000: system.cpu0.workload.drivers: ioctl: AMDKFD_IOC_DESTROY_EVENT
248227049000: system.cpu0.workload.drivers: amdkfd destroying event 424
248230361500: system.cpu0.workload.drivers: ioctl: AMDKFD_IOC_DESTROY_EVENT
248230361500: system.cpu0.workload.drivers: amdkfd destroying event 425
248233521500: system.cpu0.workload.drivers: ioctl: AMDKFD_IOC_DESTROY_EVENT
248233521500: system.cpu0.workload.drivers: amdkfd destroying event 426
248236608500: system.cpu0.workload.drivers: ioctl: AMDKFD_IOC_DESTROY_EVENT
248236608500: system.cpu0.workload.drivers: amdkfd destroying event 427
248241762500: system.cpu0.workload.drivers: ioctl: AMDKFD_IOC_DESTROY_EVENT
248241762500: system.cpu0.workload.drivers: amdkfd destroying event 428
248244568500: system.cpu0.workload.drivers: ioctl: AMDKFD_IOC_DESTROY_EVENT
248244568500: system.cpu0.workload.drivers: amdkfd destroying event 429
248247883000: system.cpu0.workload.drivers: ioctl: AMDKFD_IOC_DESTROY_EVENT
248247883000: system.cpu0.workload.drivers: amdkfd destroying event 430
248250824500: system.cpu0.workload.drivers: ioctl: AMDKFD_IOC_DESTROY_EVENT
248250824500: system.cpu0.workload.drivers: amdkfd destroying event 431
248254274000: system.cpu0.workload.drivers: ioctl: AMDKFD_IOC_DESTROY_EVENT
248254274000: system.cpu0.workload.drivers: amdkfd destroying event 432
248257019000: system.cpu0.workload.drivers: ioctl: AMDKFD_IOC_DESTROY_EVENT
248257019000: system.cpu0.workload.drivers: amdkfd destroying event 433
248259856000: system.cpu0.workload.drivers: ioctl: AMDKFD_IOC_DESTROY_EVENT
248259856000: system.cpu0.workload.drivers: amdkfd destroying event 434
248263151500: system.cpu0.workload.drivers: ioctl: AMDKFD_IOC_DESTROY_EVENT
248263151500: system.cpu0.workload.drivers: amdkfd destroying event 435
248266925500: system.cpu0.workload.drivers: ioctl: AMDKFD_IOC_DESTROY_EVENT
248266925500: system.cpu0.workload.drivers: amdkfd destroying event 436
248270046500: system.cpu0.workload.drivers: ioctl: AMDKFD_IOC_DESTROY_EVENT
248270046500: system.cpu0.workload.drivers: amdkfd destroying event 437
248273021000: system.cpu0.workload.drivers: ioctl: AMDKFD_IOC_DESTROY_EVENT
248273021000: system.cpu0.workload.drivers: amdkfd destroying event 438
248275849500: system.cpu0.workload.drivers: ioctl: AMDKFD_IOC_DESTROY_EVENT
248275849500: system.cpu0.workload.drivers: amdkfd destroying event 439
248279140000: system.cpu0.workload.drivers: ioctl: AMDKFD_IOC_DESTROY_EVENT
248279140000: system.cpu0.workload.drivers: amdkfd destroying event 440
248282339500: system.cpu0.workload.drivers: ioctl: AMDKFD_IOC_DESTROY_EVENT
248282339500: system.cpu0.workload.drivers: amdkfd destroying event 441
248285180500: system.cpu0.workload.drivers: ioctl: AMDKFD_IOC_DESTROY_EVENT
248285180500: system.cpu0.workload.drivers: amdkfd destroying event 442
248288198000: system.cpu0.workload.drivers: ioctl: AMDKFD_IOC_DESTROY_EVENT
248288198000: system.cpu0.workload.drivers: amdkfd destroying event 443
248292191000: system.cpu0.workload.drivers: ioctl: AMDKFD_IOC_DESTROY_EVENT
248292191000: system.cpu0.workload.drivers: amdkfd destroying event 444
248294912000: system.cpu0.workload.drivers: ioctl: AMDKFD_IOC_DESTROY_EVENT
248294912000: system.cpu0.workload.drivers: amdkfd destroying event 445
248298020500: system.cpu0.workload.drivers: ioctl: AMDKFD_IOC_DESTROY_EVENT
248298020500: system.cpu0.workload.drivers: amdkfd destroying event 446
248300792500: system.cpu0.workload.drivers: ioctl: AMDKFD_IOC_DESTROY_EVENT
248300792500: system.cpu0.workload.drivers: amdkfd destroying event 447
248303774000: system.cpu0.workload.drivers: ioctl: AMDKFD_IOC_DESTROY_EVENT
248303774000: system.cpu0.workload.drivers: amdkfd destroying event 448
248306576000: system.cpu0.workload.drivers: ioctl: AMDKFD_IOC_DESTROY_EVENT
248306576000: system.cpu0.workload.drivers: amdkfd destroying event 449
248309633000: system.cpu0.workload.drivers: ioctl: AMDKFD_IOC_DESTROY_EVENT
248309633000: system.cpu0.workload.drivers: amdkfd destroying event 450
248312424500: system.cpu0.workload.drivers: ioctl: AMDKFD_IOC_DESTROY_EVENT
248312424500: system.cpu0.workload.drivers: amdkfd destroying event 451
248315510000: system.cpu0.workload.drivers: ioctl: AMDKFD_IOC_DESTROY_EVENT
248315510000: system.cpu0.workload.drivers: amdkfd destroying event 452
248318407500: system.cpu0.workload.drivers: ioctl: AMDKFD_IOC_DESTROY_EVENT
248318407500: system.cpu0.workload.drivers: amdkfd destroying event 453
248321316500: system.cpu0.workload.drivers: ioctl: AMDKFD_IOC_DESTROY_EVENT
248321316500: system.cpu0.workload.drivers: amdkfd destroying event 454
248324018500: system.cpu0.workload.drivers: ioctl: AMDKFD_IOC_DESTROY_EVENT
248324018500: system.cpu0.workload.drivers: amdkfd destroying event 455
248326963000: system.cpu0.workload.drivers: ioctl: AMDKFD_IOC_DESTROY_EVENT
248326963000: system.cpu0.workload.drivers: amdkfd destroying event 456
248330192000: system.cpu0.workload.drivers: ioctl: AMDKFD_IOC_DESTROY_EVENT
248330192000: system.cpu0.workload.drivers: amdkfd destroying event 457
248333020000: system.cpu0.workload.drivers: ioctl: AMDKFD_IOC_DESTROY_EVENT
248333020000: system.cpu0.workload.drivers: amdkfd destroying event 458
248335815000: system.cpu0.workload.drivers: ioctl: AMDKFD_IOC_DESTROY_EVENT
248335815000: system.cpu0.workload.drivers: amdkfd destroying event 459
248340749500: system.cpu0.workload.drivers: ioctl: AMDKFD_IOC_DESTROY_EVENT
248340749500: system.cpu0.workload.drivers: amdkfd destroying event 460
248343454000: system.cpu0.workload.drivers: ioctl: AMDKFD_IOC_DESTROY_EVENT
248343454000: system.cpu0.workload.drivers: amdkfd destroying event 461
248346277500: system.cpu0.workload.drivers: ioctl: AMDKFD_IOC_DESTROY_EVENT
248346277500: system.cpu0.workload.drivers: amdkfd destroying event 462
248349022000: system.cpu0.workload.drivers: ioctl: AMDKFD_IOC_DESTROY_EVENT
248349022000: system.cpu0.workload.drivers: amdkfd destroying event 463
248351992000: system.cpu0.workload.drivers: ioctl: AMDKFD_IOC_DESTROY_EVENT
248351992000: system.cpu0.workload.drivers: amdkfd destroying event 464
248354950000: system.cpu0.workload.drivers: ioctl: AMDKFD_IOC_DESTROY_EVENT
248354950000: system.cpu0.workload.drivers: amdkfd destroying event 465
248357748500: system.cpu0.workload.drivers: ioctl: AMDKFD_IOC_DESTROY_EVENT
248357748500: system.cpu0.workload.drivers: amdkfd destroying event 466
248360429500: system.cpu0.workload.drivers: ioctl: AMDKFD_IOC_DESTROY_EVENT
248360429500: system.cpu0.workload.drivers: amdkfd destroying event 467
248364002000: system.cpu0.workload.drivers: ioctl: AMDKFD_IOC_DESTROY_EVENT
248364002000: system.cpu0.workload.drivers: amdkfd destroying event 468
248366795500: system.cpu0.workload.drivers: ioctl: AMDKFD_IOC_DESTROY_EVENT
248366795500: system.cpu0.workload.drivers: amdkfd destroying event 469
248369523000: system.cpu0.workload.drivers: ioctl: AMDKFD_IOC_DESTROY_EVENT
248369523000: system.cpu0.workload.drivers: amdkfd destroying event 470
248372086000: system.cpu0.workload.drivers: ioctl: AMDKFD_IOC_DESTROY_EVENT
248372086000: system.cpu0.workload.drivers: amdkfd destroying event 471
248375038000: system.cpu0.workload.drivers: ioctl: AMDKFD_IOC_DESTROY_EVENT
248375038000: system.cpu0.workload.drivers: amdkfd destroying event 472
248378345500: system.cpu0.workload.drivers: ioctl: AMDKFD_IOC_DESTROY_EVENT
248378345500: system.cpu0.workload.drivers: amdkfd destroying event 473
248381231500: system.cpu0.workload.drivers: ioctl: AMDKFD_IOC_DESTROY_EVENT
248381231500: system.cpu0.workload.drivers: amdkfd destroying event 474
248383866500: system.cpu0.workload.drivers: ioctl: AMDKFD_IOC_DESTROY_EVENT
248383866500: system.cpu0.workload.drivers: amdkfd destroying event 475
248387486500: system.cpu0.workload.drivers: ioctl: AMDKFD_IOC_DESTROY_EVENT
248387486500: system.cpu0.workload.drivers: amdkfd destroying event 476
248390097000: system.cpu0.workload.drivers: ioctl: AMDKFD_IOC_DESTROY_EVENT
248390097000: system.cpu0.workload.drivers: amdkfd destroying event 477
248392692000: system.cpu0.workload.drivers: ioctl: AMDKFD_IOC_DESTROY_EVENT
248392692000: system.cpu0.workload.drivers: amdkfd destroying event 478
248395200500: system.cpu0.workload.drivers: ioctl: AMDKFD_IOC_DESTROY_EVENT
248395200500: system.cpu0.workload.drivers: amdkfd destroying event 479
248398086000: system.cpu0.workload.drivers: ioctl: AMDKFD_IOC_DESTROY_EVENT
248398086000: system.cpu0.workload.drivers: amdkfd destroying event 480
248400492000: system.cpu0.workload.drivers: ioctl: AMDKFD_IOC_DESTROY_EVENT
248400492000: system.cpu0.workload.drivers: amdkfd destroying event 481
248403123500: system.cpu0.workload.drivers: ioctl: AMDKFD_IOC_DESTROY_EVENT
248403123500: system.cpu0.workload.drivers: amdkfd destroying event 482
248405863000: system.cpu0.workload.drivers: ioctl: AMDKFD_IOC_DESTROY_EVENT
248405863000: system.cpu0.workload.drivers: amdkfd destroying event 483
248408868500: system.cpu0.workload.drivers: ioctl: AMDKFD_IOC_DESTROY_EVENT
248408868500: system.cpu0.workload.drivers: amdkfd destroying event 484
248411331500: system.cpu0.workload.drivers: ioctl: AMDKFD_IOC_DESTROY_EVENT
248411331500: system.cpu0.workload.drivers: amdkfd destroying event 485
248413855500: system.cpu0.workload.drivers: ioctl: AMDKFD_IOC_DESTROY_EVENT
248413855500: system.cpu0.workload.drivers: amdkfd destroying event 486
248416395500: system.cpu0.workload.drivers: ioctl: AMDKFD_IOC_DESTROY_EVENT
248416395500: system.cpu0.workload.drivers: amdkfd destroying event 487
248419355000: system.cpu0.workload.drivers: ioctl: AMDKFD_IOC_DESTROY_EVENT
248419355000: system.cpu0.workload.drivers: amdkfd destroying event 488
248422318000: system.cpu0.workload.drivers: ioctl: AMDKFD_IOC_DESTROY_EVENT
248422318000: system.cpu0.workload.drivers: amdkfd destroying event 489
248424899500: system.cpu0.workload.drivers: ioctl: AMDKFD_IOC_DESTROY_EVENT
248424899500: system.cpu0.workload.drivers: amdkfd destroying event 490
248427514000: system.cpu0.workload.drivers: ioctl: AMDKFD_IOC_DESTROY_EVENT
248427514000: system.cpu0.workload.drivers: amdkfd destroying event 491
248432277500: system.cpu0.workload.drivers: ioctl: AMDKFD_IOC_DESTROY_EVENT
248432277500: system.cpu0.workload.drivers: amdkfd destroying event 492
248434800000: system.cpu0.workload.drivers: ioctl: AMDKFD_IOC_DESTROY_EVENT
248434800000: system.cpu0.workload.drivers: amdkfd destroying event 493
248437484000: system.cpu0.workload.drivers: ioctl: AMDKFD_IOC_DESTROY_EVENT
248437484000: system.cpu0.workload.drivers: amdkfd destroying event 494
248440053000: system.cpu0.workload.drivers: ioctl: AMDKFD_IOC_DESTROY_EVENT
248440053000: system.cpu0.workload.drivers: amdkfd destroying event 495
248443043500: system.cpu0.workload.drivers: ioctl: AMDKFD_IOC_DESTROY_EVENT
248443043500: system.cpu0.workload.drivers: amdkfd destroying event 496
248446251000: system.cpu0.workload.drivers: ioctl: AMDKFD_IOC_DESTROY_EVENT
248446251000: system.cpu0.workload.drivers: amdkfd destroying event 497
248448837500: system.cpu0.workload.drivers: ioctl: AMDKFD_IOC_DESTROY_EVENT
248448837500: system.cpu0.workload.drivers: amdkfd destroying event 498
248451476000: system.cpu0.workload.drivers: ioctl: AMDKFD_IOC_DESTROY_EVENT
248451476000: system.cpu0.workload.drivers: amdkfd destroying event 499
248454825000: system.cpu0.workload.drivers: ioctl: AMDKFD_IOC_DESTROY_EVENT
248454825000: system.cpu0.workload.drivers: amdkfd destroying event 500
248457165000: system.cpu0.workload.drivers: ioctl: AMDKFD_IOC_DESTROY_EVENT
248457165000: system.cpu0.workload.drivers: amdkfd destroying event 501
248459615000: system.cpu0.workload.drivers: ioctl: AMDKFD_IOC_DESTROY_EVENT
248459615000: system.cpu0.workload.drivers: amdkfd destroying event 502
248462148000: system.cpu0.workload.drivers: ioctl: AMDKFD_IOC_DESTROY_EVENT
248462148000: system.cpu0.workload.drivers: amdkfd destroying event 503
248464949500: system.cpu0.workload.drivers: ioctl: AMDKFD_IOC_DESTROY_EVENT
248464949500: system.cpu0.workload.drivers: amdkfd destroying event 504
248467399000: system.cpu0.workload.drivers: ioctl: AMDKFD_IOC_DESTROY_EVENT
248467399000: system.cpu0.workload.drivers: amdkfd destroying event 505
248470022500: system.cpu0.workload.drivers: ioctl: AMDKFD_IOC_DESTROY_EVENT
248470022500: system.cpu0.workload.drivers: amdkfd destroying event 506
248472523500: system.cpu0.workload.drivers: ioctl: AMDKFD_IOC_DESTROY_EVENT
248472523500: system.cpu0.workload.drivers: amdkfd destroying event 507
248475884500: system.cpu0.workload.drivers: ioctl: AMDKFD_IOC_DESTROY_EVENT
248475884500: system.cpu0.workload.drivers: amdkfd destroying event 508
248478345000: system.cpu0.workload.drivers: ioctl: AMDKFD_IOC_DESTROY_EVENT
248478345000: system.cpu0.workload.drivers: amdkfd destroying event 509
248480879500: system.cpu0.workload.drivers: ioctl: AMDKFD_IOC_DESTROY_EVENT
248480879500: system.cpu0.workload.drivers: amdkfd destroying event 510
248483170500: system.cpu0.workload.drivers: ioctl: AMDKFD_IOC_DESTROY_EVENT
248483170500: system.cpu0.workload.drivers: amdkfd destroying event 511
248486141000: system.cpu0.workload.drivers: ioctl: AMDKFD_IOC_DESTROY_EVENT
248486141000: system.cpu0.workload.drivers: amdkfd destroying event 512
248489056500: system.cpu0.workload.drivers: ioctl: AMDKFD_IOC_DESTROY_EVENT
248489056500: system.cpu0.workload.drivers: amdkfd destroying event 513
248491443500: system.cpu0.workload.drivers: ioctl: AMDKFD_IOC_DESTROY_EVENT
248491443500: system.cpu0.workload.drivers: amdkfd destroying event 514
248494005500: system.cpu0.workload.drivers: ioctl: AMDKFD_IOC_DESTROY_EVENT
248494005500: system.cpu0.workload.drivers: amdkfd destroying event 515
248497006500: system.cpu0.workload.drivers: ioctl: AMDKFD_IOC_DESTROY_EVENT
248497006500: system.cpu0.workload.drivers: amdkfd destroying event 516
248499275000: system.cpu0.workload.drivers: ioctl: AMDKFD_IOC_DESTROY_EVENT
248499275000: system.cpu0.workload.drivers: amdkfd destroying event 517
248501622000: system.cpu0.workload.drivers: ioctl: AMDKFD_IOC_DESTROY_EVENT
248501622000: system.cpu0.workload.drivers: amdkfd destroying event 518
248504008000: system.cpu0.workload.drivers: ioctl: AMDKFD_IOC_DESTROY_EVENT
248504008000: system.cpu0.workload.drivers: amdkfd destroying event 519
248507029500: system.cpu0.workload.drivers: ioctl: AMDKFD_IOC_DESTROY_EVENT
248507029500: system.cpu0.workload.drivers: amdkfd destroying event 520
248509250500: system.cpu0.workload.drivers: ioctl: AMDKFD_IOC_DESTROY_EVENT
248509250500: system.cpu0.workload.drivers: amdkfd destroying event 521
248511563500: system.cpu0.workload.drivers: ioctl: AMDKFD_IOC_DESTROY_EVENT
248511563500: system.cpu0.workload.drivers: amdkfd destroying event 522
248513818000: system.cpu0.workload.drivers: ioctl: AMDKFD_IOC_DESTROY_EVENT
248513818000: system.cpu0.workload.drivers: amdkfd destroying event 523
248516328000: system.cpu0.workload.drivers: ioctl: AMDKFD_IOC_DESTROY_EVENT
248516328000: system.cpu0.workload.drivers: amdkfd destroying event 524
248563537500: system.cpu0.workload.drivers: ioctl: AMDKFD_IOC_SET_EVENTS
248563537500: system.cpu0.workload.drivers: amdkfd set event 1
248563537500: system.cpu0.workload.drivers: Signal event: Waking up CPU 1
warn: ignoring syscall madvise(...)
248589400000: system.cpu0.workload.drivers: ioctl: AMDKFD_IOC_DESTROY_EVENT
248589400000: system.cpu0.workload.drivers: amdkfd destroying event 1
248604925000: system.cpu0.workload.drivers: ioctl: AMDKFD_IOC_DESTROY_EVENT
248604925000: system.cpu0.workload.drivers: amdkfd destroying event 3
248613015500: system.cpu0.workload.drivers: ioctl: AMDKFD_IOC_DESTROY_EVENT
248613015500: system.cpu0.workload.drivers: amdkfd destroying event 4
248621120000: system.cpu0.workload.drivers: ioctl: AMDKFD_IOC_DESTROY_EVENT
248621120000: system.cpu0.workload.drivers: amdkfd destroying event 2
248623999000: system.cpu0.workload.drivers: ioctl: AMDKFD_IOC_DESTROY_QUEUE;queue offset 0
248623999000: global: db_offset = 0
248623999000: global: db_offset = 0
248623999000: global: context switching
248623999000: global: Trying to map next queue, @ contextSwitchQ248632637500: system.cpu0.workload.drivers: ioctl: AMDKFD_IOC_DESTROY_QUEUE;queue offset 1
248632637500: global: db_offset = 4
248632637500: global: db_offset = 1
248632637500: global: context switching
248632637500: global: Trying to map next queue, @ contextSwitchQTicks: 248791991000
Exiting because  exiting with last active thread context
